/*---------------------------------------------------------------------------*\
| =========                 |                                                 |
| \\      /  F ield         | foam-extend: Open Source CFD                    |
|  \\    /   O peration     | Version:     4.1                                |
|   \\  /    A nd           | Web:         http://www.foam-extend.org         |
|    \\/     M anipulation  | For copyright notice see file Copyright         |
\*---------------------------------------------------------------------------*/
Build  : 4.1-752fce1a0260
Exec   : fabisInterDyMFoam
Date   : May 09 2019
Time   : 09:28:08
Host   : "fabian-Latitude-E6320"
PID    : 7236
CtrlDict : "/home/fabianspieler/foam/fabianspieler-4.1/run/bachelorarbeit/test2/tutorials/floatingObject/system/controlDict"
Case   : /home/fabianspieler/foam/fabianspieler-4.1/run/bachelorarbeit/test2/tutorials/floatingObject
nProcs : 1
sigFpe : Enabling floating point exception trapping (FOAM_SIGFPE).
allowSystemOperations : Disallowing user-supplied system call operations

// * * * * * * * * * * * * * * * * * * * * * * * * * * * * * * * * * * * * * //
Create time

Create dynamic mesh for time = 0

Selecting dynamicFvMesh dynamicMotionSolverFvMesh
Selecting motion solver: displacementLaplacian
Selecting motion diffusion: inverseDistance

PIMPLE: Operating solver in PISO mode


Reading g
Reading field pd

Reading field alpha1

Reading field U

Reading/calculating face flux field phi

Reading transportProperties

Selecting incompressible transport model Newtonian
Selecting incompressible transport model Newtonian
Selecting turbulence model type RASModel
Selecting RAS turbulence model kEpsilon
kEpsilonCoeffs
{
    Cmu             0.09;
    C1              1.44;
    C2              1.92;
    sigmaEps        1.3;
}

time step continuity errors : sum local = 0, global = 0, cumulative = 0
PCG:  Solving for pcorr, Initial residual = 0, Final residual = 0, No Iterations 0
time step continuity errors : sum local = 0, global = 0, cumulative = 0
Courant Number mean: 0 max: 0 velocity magnitude: 0
Courant Number mean: 0 max: 0 velocity magnitude: 0

Starting time loop

Courant Number mean: 0 max: 0 velocity magnitude: 0
deltaT = 0.01
Time = 0.01

Centre of mass: (0.5 0.5 0.5)
Linear velocity: (0 0 -0.04905)
Angular velocity: (0 0 0)
GAMG:  Solving for cellDisplacementx, Initial residual = 0, Final residual = 0, No Iterations 0
GAMG:  Solving for cellDisplacementy, Initial residual = 0, Final residual = 0, No Iterations 0
GAMG:  Solving for cellDisplacementz, Initial residual = 0, Final residual = 0, No Iterations 0
volume continuity errors : volume = 1, old volume = 1, max error = 0, sum local = 0, global = 0
PIMPLE: iteration 1
MULES: Solving for alpha1
Liquid phase volume fraction = 0.540333333333  Min(alpha1) = 0  Max(alpha1) = 1
MULES: Solving for alpha1
Liquid phase volume fraction = 0.540333333333  Min(alpha1) = 0  Max(alpha1) = 1
MULES: Solving for alpha1
Liquid phase volume fraction = 0.540333333333  Min(alpha1) = 0  Max(alpha1) = 1
smoothSolver:  Solving for Ux, Initial residual = 1, Final residual = 4.894424671e-07, No Iterations 15
smoothSolver:  Solving for Uy, Initial residual = 1, Final residual = 4.96436293954e-07, No Iterations 15
smoothSolver:  Solving for Uz, Initial residual = 1, Final residual = 5.35623891807e-07, No Iterations 16
GAMG:  Solving for pd, Initial residual = 1, Final residual = 0.00464673549891, No Iterations 3
time step continuity errors : sum local = 0.00125510990959, global = -0.000215776759428, cumulative = -0.000215776759428
GAMG:  Solving for pd, Initial residual = 0.00065996200059, Final residual = 6.37059716795e-06, No Iterations 4
time step continuity errors : sum local = 0.000426617231338, global = 2.8038459529e-05, cumulative = -0.000187738299899
GAMG:  Solving for pd, Initial residual = 0.000273038529022, Final residual = 2.07125435672e-06, No Iterations 4
time step continuity errors : sum local = 0.000108718614607, global = 4.13350292989e-05, cumulative = -0.0001464032706
GAMGPCG:  Solving for pd, Initial residual = 9.47531893114e-05, Final residual = 9.89960645504e-10, No Iterations 5
time step continuity errors : sum local = 3.69730054793e-08, global = -1.06660072113e-11, cumulative = -0.000146403281266
BiCGStab:  Solving for epsilon, Initial residual = 0.0819986321486, Final residual = 8.51596696125e-11, No Iterations 3
BiCGStab:  Solving for k, Initial residual = 0.999999999837, Final residual = 8.07923361325e-09, No Iterations 3
ExecutionTime = 2.51 s  ClockTime = 3 s

Courant Number mean: 0.00143643207501 max: 0.225954733305 velocity magnitude: 0.393160367836
deltaT = 0.01
Time = 0.02

GAMG:  Solving for cellDisplacementx, Initial residual = 0, Final residual = 0, No Iterations 0
GAMG:  Solving for cellDisplacementy, Initial residual = 0, Final residual = 0, No Iterations 0
GAMG:  Solving for cellDisplacementz, Initial residual = 0, Final residual = 0, No Iterations 0
volume continuity errors : volume = 1, old volume = 1, max error = 0, sum local = 0, global = 0
PIMPLE: iteration 1
MULES: Solving for alpha1
Liquid phase volume fraction = 0.540333333332  Min(alpha1) = 0  Max(alpha1) = 1.00000007469
MULES: Solving for alpha1
Liquid phase volume fraction = 0.540333333333  Min(alpha1) = 0  Max(alpha1) = 1.00000012329
MULES: Solving for alpha1
Liquid phase volume fraction = 0.540333333333  Min(alpha1) = -7.52075643268e-31  Max(alpha1) = 1.0000001849
smoothSolver:  Solving for Ux, Initial residual = 0.426374962872, Final residual = 8.13917123549e-07, No Iterations 13
smoothSolver:  Solving for Uy, Initial residual = 0.431522496807, Final residual = 9.10443279063e-07, No Iterations 13
smoothSolver:  Solving for Uz, Initial residual = 0.625669049119, Final residual = 4.52540065172e-07, No Iterations 14
GAMG:  Solving for pd, Initial residual = 0.00092064174978, Final residual = 4.18348968435e-06, No Iterations 2
time step continuity errors : sum local = 0.000159604849879, global = -2.37249018558e-05, cumulative = -0.000170128183122
GAMG:  Solving for pd, Initial residual = 9.01829262561e-05, Final residual = 2.67075823902e-07, No Iterations 3
time step continuity errors : sum local = 1.03967705367e-05, global = -2.28655531807e-06, cumulative = -0.00017241473844
GAMG:  Solving for pd, Initial residual = 8.74537237352e-06, Final residual = 6.31043602238e-08, No Iterations 3
time step continuity errors : sum local = 2.46823495693e-06, global = 1.38665994332e-06, cumulative = -0.000171028078497
GAMGPCG:  Solving for pd, Initial residual = 1.59252819896e-06, Final residual = 2.41151339314e-09, No Iterations 3
time step continuity errors : sum local = 9.39059773044e-08, global = -2.90279513921e-09, cumulative = -0.000171030981292
BiCGStab:  Solving for epsilon, Initial residual = 0.0164935076956, Final residual = 9.42402407806e-09, No Iterations 2
BiCGStab:  Solving for k, Initial residual = 0.485855267877, Final residual = 7.04456357737e-10, No Iterations 3
ExecutionTime = 3.96 s  ClockTime = 4 s

Courant Number mean: 0.00228628934361 max: 0.352208775073 velocity magnitude: 0.728181936997
deltaT = 0.01
Time = 0.03

GAMG:  Solving for cellDisplacementx, Initial residual = 0, Final residual = 0, No Iterations 0
GAMG:  Solving for cellDisplacementy, Initial residual = 0, Final residual = 0, No Iterations 0
GAMG:  Solving for cellDisplacementz, Initial residual = 0, Final residual = 0, No Iterations 0
volume continuity errors : volume = 1, old volume = 1, max error = 0, sum local = 0, global = 0
PIMPLE: iteration 1
MULES: Solving for alpha1
Liquid phase volume fraction = 0.540333333333  Min(alpha1) = -1.10710879145e-31  Max(alpha1) = 1.00000038487
MULES: Solving for alpha1
Liquid phase volume fraction = 0.540333333333  Min(alpha1) = -3.41244588365e-35  Max(alpha1) = 1.00000061924
MULES: Solving for alpha1
Liquid phase volume fraction = 0.540333333333  Min(alpha1) = -7.46297853435e-30  Max(alpha1) = 1.0000008463
smoothSolver:  Solving for Ux, Initial residual = 0.284995597336, Final residual = 6.13360461137e-07, No Iterations 13
smoothSolver:  Solving for Uy, Initial residual = 0.288350639231, Final residual = 7.09394696555e-07, No Iterations 13
smoothSolver:  Solving for Uz, Initial residual = 0.305635582422, Final residual = 8.40615242837e-07, No Iterations 13
GAMG:  Solving for pd, Initial residual = 0.00110826534077, Final residual = 6.35291201266e-06, No Iterations 2
time step continuity errors : sum local = 0.000247724530842, global = -5.38109899808e-06, cumulative = -0.00017641208029
GAMG:  Solving for pd, Initial residual = 0.000118957553067, Final residual = 3.87918873123e-07, No Iterations 3
time step continuity errors : sum local = 1.50907732937e-05, global = -1.49492549942e-06, cumulative = -0.000177907005789
GAMG:  Solving for pd, Initial residual = 9.93777289915e-06, Final residual = 9.0381077676e-08, No Iterations 3
time step continuity errors : sum local = 3.52621768309e-06, global = 6.9802903479e-07, cumulative = -0.000177208976755
GAMGPCG:  Solving for pd, Initial residual = 1.71485778415e-06, Final residual = 6.41246318769e-09, No Iterations 2
time step continuity errors : sum local = 2.50246670048e-07, global = -6.93100150569e-09, cumulative = -0.000177215907756
BiCGStab:  Solving for epsilon, Initial residual = 0.0142969797911, Final residual = 5.33474167501e-09, No Iterations 2
BiCGStab:  Solving for k, Initial residual = 0.266053461039, Final residual = 4.35062420082e-10, No Iterations 3
ExecutionTime = 5.3 s  ClockTime = 6 s

Courant Number mean: 0.00331373757278 max: 0.412534738592 velocity magnitude: 0.822033461015
deltaT = 0.00875
Time = 0.03875

GAMG:  Solving for cellDisplacementx, Initial residual = 0, Final residual = 0, No Iterations 0
GAMG:  Solving for cellDisplacementy, Initial residual = 0, Final residual = 0, No Iterations 0
GAMG:  Solving for cellDisplacementz, Initial residual = 0, Final residual = 0, No Iterations 0
volume continuity errors : volume = 1, old volume = 1, max error = 0, sum local = 0, global = 0
PIMPLE: iteration 1
MULES: Solving for alpha1
Liquid phase volume fraction = 0.540333333333  Min(alpha1) = -7.54964538185e-30  Max(alpha1) = 1.00000030533
MULES: Solving for alpha1
Liquid phase volume fraction = 0.540333333332  Min(alpha1) = -1.90527407602e-35  Max(alpha1) = 1.00000063689
MULES: Solving for alpha1
Liquid phase volume fraction = 0.540333333332  Min(alpha1) = -6.67309802875e-30  Max(alpha1) = 1.00000106798
smoothSolver:  Solving for Ux, Initial residual = 0.185955950155, Final residual = 4.74315204833e-07, No Iterations 12
smoothSolver:  Solving for Uy, Initial residual = 0.188993038293, Final residual = 5.61906999975e-07, No Iterations 12
smoothSolver:  Solving for Uz, Initial residual = 0.212258178655, Final residual = 8.53882075697e-07, No Iterations 12
GAMG:  Solving for pd, Initial residual = 0.00111005120674, Final residual = 6.71799736384e-06, No Iterations 2
time step continuity errors : sum local = 0.000212436275013, global = -5.60765236908e-06, cumulative = -0.000182823560125
GAMG:  Solving for pd, Initial residual = 0.000127191744667, Final residual = 4.47739636829e-07, No Iterations 3
time step continuity errors : sum local = 1.41224639528e-05, global = -9.71392372661e-07, cumulative = -0.000183794952498
GAMG:  Solving for pd, Initial residual = 1.02752340249e-05, Final residual = 8.5999551248e-08, No Iterations 3
time step continuity errors : sum local = 2.72042582424e-06, global = 6.77416885064e-07, cumulative = -0.000183117535613
GAMGPCG:  Solving for pd, Initial residual = 1.57501811456e-06, Final residual = 6.58076437454e-09, No Iterations 2
time step continuity errors : sum local = 2.08227756385e-07, global = -5.91079652905e-09, cumulative = -0.000183123446409
BiCGStab:  Solving for epsilon, Initial residual = 0.0110591660275, Final residual = 3.07981039289e-09, No Iterations 2
BiCGStab:  Solving for k, Initial residual = 0.163117790442, Final residual = 2.18886388376e-10, No Iterations 3
ExecutionTime = 6.63 s  ClockTime = 7 s

Courant Number mean: 0.00369460084521 max: 0.345753740489 velocity magnitude: 0.987867829968
deltaT = 0.00875
Time = 0.0475

GAMG:  Solving for cellDisplacementx, Initial residual = 0, Final residual = 0, No Iterations 0
GAMG:  Solving for cellDisplacementy, Initial residual = 0, Final residual = 0, No Iterations 0
GAMG:  Solving for cellDisplacementz, Initial residual = 0, Final residual = 0, No Iterations 0
volume continuity errors : volume = 1, old volume = 1, max error = 0, sum local = 0, global = 0
PIMPLE: iteration 1
MULES: Solving for alpha1
Liquid phase volume fraction = 0.540333333332  Min(alpha1) = -4.10253056016e-33  Max(alpha1) = 1.00000146142
MULES: Solving for alpha1
Liquid phase volume fraction = 0.540333333332  Min(alpha1) = -1.28569694634e-38  Max(alpha1) = 1.00000185303
MULES: Solving for alpha1
Liquid phase volume fraction = 0.540333333332  Min(alpha1) = -6.86992273289e-33  Max(alpha1) = 1.00000225024
smoothSolver:  Solving for Ux, Initial residual = 0.154122941058, Final residual = 4.75471698803e-07, No Iterations 12
smoothSolver:  Solving for Uy, Initial residual = 0.156403104947, Final residual = 5.77687507815e-07, No Iterations 12
smoothSolver:  Solving for Uz, Initial residual = 0.185352425573, Final residual = 3.78011289183e-07, No Iterations 13
GAMG:  Solving for pd, Initial residual = 0.00122976780216, Final residual = 7.79817443754e-06, No Iterations 2
time step continuity errors : sum local = 0.000247138606934, global = -6.27419003088e-06, cumulative = -0.00018939763644
GAMG:  Solving for pd, Initial residual = 0.000149510263783, Final residual = 5.16346921004e-07, No Iterations 3
time step continuity errors : sum local = 1.63187374593e-05, global = -1.02948579942e-06, cumulative = -0.00019042712224
GAMG:  Solving for pd, Initial residual = 1.26110021281e-05, Final residual = 9.5584528766e-08, No Iterations 3
time step continuity errors : sum local = 3.03074469772e-06, global = 7.4693750498e-07, cumulative = -0.000189680184735
GAMGPCG:  Solving for pd, Initial residual = 1.78606142253e-06, Final residual = 7.50156493337e-09, No Iterations 2
time step continuity errors : sum local = 2.37927701187e-07, global = -5.17839673938e-09, cumulative = -0.000189685363131
BiCGStab:  Solving for epsilon, Initial residual = 0.0119664043989, Final residual = 5.0092542091e-09, No Iterations 2
BiCGStab:  Solving for k, Initial residual = 0.129038174514, Final residual = 2.79951237276e-10, No Iterations 3
ExecutionTime = 7.99 s  ClockTime = 8 s

Courant Number mean: 0.00448455353884 max: 0.370323326213 velocity magnitude: 1.05806664632
deltaT = 0.00875
Time = 0.05625

GAMG:  Solving for cellDisplacementx, Initial residual = 0, Final residual = 0, No Iterations 0
GAMG:  Solving for cellDisplacementy, Initial residual = 0, Final residual = 0, No Iterations 0
GAMG:  Solving for cellDisplacementz, Initial residual = 0, Final residual = 0, No Iterations 0
volume continuity errors : volume = 1, old volume = 1, max error = 0, sum local = 0, global = 0
PIMPLE: iteration 1
MULES: Solving for alpha1
Liquid phase volume fraction = 0.540333333332  Min(alpha1) = -2.21782723217e-37  Max(alpha1) = 1.00000270511
MULES: Solving for alpha1
Liquid phase volume fraction = 0.540333333333  Min(alpha1) = -2.65528561811e-35  Max(alpha1) = 1.00000315631
MULES: Solving for alpha1
Liquid phase volume fraction = 0.540333333333  Min(alpha1) = -3.11183456295e-31  Max(alpha1) = 1.00000360371
smoothSolver:  Solving for Ux, Initial residual = 0.13278126715, Final residual = 5.10873530869e-07, No Iterations 12
smoothSolver:  Solving for Uy, Initial residual = 0.134412285784, Final residual = 6.35353950564e-07, No Iterations 12
smoothSolver:  Solving for Uz, Initial residual = 0.167393145104, Final residual = 4.64424439208e-07, No Iterations 13
GAMG:  Solving for pd, Initial residual = 0.00138368158506, Final residual = 8.8686233986e-06, No Iterations 2
time step continuity errors : sum local = 0.00028166300703, global = -6.40940699269e-06, cumulative = -0.000196094770124
GAMG:  Solving for pd, Initial residual = 0.000171132659791, Final residual = 5.66296324221e-07, No Iterations 3
time step continuity errors : sum local = 1.793014186e-05, global = -1.04784737478e-06, cumulative = -0.000197142617499
GAMG:  Solving for pd, Initial residual = 1.49095065063e-05, Final residual = 1.05429905962e-07, No Iterations 3
time step continuity errors : sum local = 3.35034591198e-06, global = 7.52774536389e-07, cumulative = -0.000196389842962
GAMGPCG:  Solving for pd, Initial residual = 2.0032630391e-06, Final residual = 8.04917968907e-09, No Iterations 2
time step continuity errors : sum local = 2.55867513637e-07, global = -2.80983839091e-09, cumulative = -0.000196392652801
BiCGStab:  Solving for epsilon, Initial residual = 0.0134027294476, Final residual = 6.16749109818e-09, No Iterations 2
BiCGStab:  Solving for k, Initial residual = 0.106967971256, Final residual = 2.99139966713e-10, No Iterations 3
ExecutionTime = 9.33 s  ClockTime = 10 s

Courant Number mean: 0.00525634882767 max: 0.393766466569 velocity magnitude: 1.12504704734
deltaT = 0.00875
Time = 0.065

GAMG:  Solving for cellDisplacementx, Initial residual = 0, Final residual = 0, No Iterations 0
GAMG:  Solving for cellDisplacementy, Initial residual = 0, Final residual = 0, No Iterations 0
GAMG:  Solving for cellDisplacementz, Initial residual = 0, Final residual = 0, No Iterations 0
volume continuity errors : volume = 1, old volume = 1, max error = 0, sum local = 0, global = 0
PIMPLE: iteration 1
MULES: Solving for alpha1
Liquid phase volume fraction = 0.540333333332  Min(alpha1) = -2.18568480853e-37  Max(alpha1) = 1.00000408303
MULES: Solving for alpha1
Liquid phase volume fraction = 0.540333333333  Min(alpha1) = -8.7684692442e-33  Max(alpha1) = 1.00000460137
MULES: Solving for alpha1
Liquid phase volume fraction = 0.540333333332  Min(alpha1) = -8.7684692442e-33  Max(alpha1) = 1.00000514918
smoothSolver:  Solving for Ux, Initial residual = 0.117724668423, Final residual = 5.66963317299e-07, No Iterations 12
smoothSolver:  Solving for Uy, Initial residual = 0.118867482807, Final residual = 7.21004772104e-07, No Iterations 12
smoothSolver:  Solving for Uz, Initial residual = 0.15625141793, Final residual = 5.59301939572e-07, No Iterations 13
GAMG:  Solving for pd, Initial residual = 0.00153907361555, Final residual = 9.86631495628e-06, No Iterations 2
time step continuity errors : sum local = 0.000314014677109, global = -5.87537897254e-06, cumulative = -0.000202268031773
GAMG:  Solving for pd, Initial residual = 0.000190397670961, Final residual = 5.992357735e-07, No Iterations 3
time step continuity errors : sum local = 1.90058750672e-05, global = -9.90923030879e-07, cumulative = -0.000203258954804
GAMG:  Solving for pd, Initial residual = 1.68371700607e-05, Final residual = 1.18066178305e-07, No Iterations 3
time step continuity errors : sum local = 3.76010394979e-06, global = 7.32374101939e-07, cumulative = -0.000202526580702
GAMGPCG:  Solving for pd, Initial residual = 2.17746335309e-06, Final residual = 8.3739272097e-09, No Iterations 2
time step continuity errors : sum local = 2.66766080483e-07, global = 5.02785087739e-10, cumulative = -0.000202526077917
BiCGStab:  Solving for epsilon, Initial residual = 0.0146791116891, Final residual = 6.44929114977e-09, No Iterations 2
BiCGStab:  Solving for k, Initial residual = 0.0914721642972, Final residual = 2.81940357402e-10, No Iterations 3
ExecutionTime = 10.68 s  ClockTime = 11 s

Courant Number mean: 0.00600717504451 max: 0.400239551341 velocity magnitude: 1.12839257608
deltaT = 0.00875
Time = 0.07375

GAMG:  Solving for cellDisplacementx, Initial residual = 0, Final residual = 0, No Iterations 0
GAMG:  Solving for cellDisplacementy, Initial residual = 0, Final residual = 0, No Iterations 0
GAMG:  Solving for cellDisplacementz, Initial residual = 0, Final residual = 0, No Iterations 0
volume continuity errors : volume = 1, old volume = 1, max error = 0, sum local = 0, global = 0
PIMPLE: iteration 1
MULES: Solving for alpha1
Liquid phase volume fraction = 0.540333333332  Min(alpha1) = -2.44282419775e-36  Max(alpha1) = 1.00000582672
MULES: Solving for alpha1
Liquid phase volume fraction = 0.540333333332  Min(alpha1) = -2.87738976556e-35  Max(alpha1) = 1.00000651758
MULES: Solving for alpha1
Liquid phase volume fraction = 0.540333333332  Min(alpha1) = -2.0905432345e-34  Max(alpha1) = 1.00000720522
smoothSolver:  Solving for Ux, Initial residual = 0.106362927662, Final residual = 5.90724950294e-07, No Iterations 12
smoothSolver:  Solving for Uy, Initial residual = 0.107080787158, Final residual = 7.50925199762e-07, No Iterations 12
smoothSolver:  Solving for Uz, Initial residual = 0.147294091111, Final residual = 5.66131098177e-07, No Iterations 13
GAMG:  Solving for pd, Initial residual = 0.00167660436184, Final residual = 1.08415690219e-05, No Iterations 2
time step continuity errors : sum local = 0.000345707648175, global = -4.28416418547e-06, cumulative = -0.000206810242103
GAMG:  Solving for pd, Initial residual = 0.000211063241287, Final residual = 6.2880812346e-07, No Iterations 3
time step continuity errors : sum local = 1.99728318991e-05, global = -8.5986067298e-07, cumulative = -0.000207670102776
GAMG:  Solving for pd, Initial residual = 1.9201624427e-05, Final residual = 1.32256308097e-07, No Iterations 3
time step continuity errors : sum local = 4.22050857659e-06, global = 5.88029644801e-07, cumulative = -0.000207082073131
GAMGPCG:  Solving for pd, Initial residual = 2.40404599909e-06, Final residual = 9.2310901472e-09, No Iterations 2
time step continuity errors : sum local = 2.94643739395e-07, global = 6.37406703963e-09, cumulative = -0.000207075699064
BiCGStab:  Solving for epsilon, Initial residual = 0.0158666239467, Final residual = 6.82714870603e-09, No Iterations 2
BiCGStab:  Solving for k, Initial residual = 0.0798961566709, Final residual = 2.61452724209e-10, No Iterations 3
ExecutionTime = 12.02 s  ClockTime = 12 s

Courant Number mean: 0.00672490359934 max: 0.423692000927 velocity magnitude: 1.10757105781
deltaT = 0.00875
Time = 0.0825

GAMG:  Solving for cellDisplacementx, Initial residual = 0, Final residual = 0, No Iterations 0
GAMG:  Solving for cellDisplacementy, Initial residual = 0, Final residual = 0, No Iterations 0
GAMG:  Solving for cellDisplacementz, Initial residual = 0, Final residual = 0, No Iterations 0
volume continuity errors : volume = 1, old volume = 1, max error = 0, sum local = 0, global = 0
PIMPLE: iteration 1
MULES: Solving for alpha1
Liquid phase volume fraction = 0.540333333332  Min(alpha1) = -1.84266086327e-34  Max(alpha1) = 1.00000798674
MULES: Solving for alpha1
Liquid phase volume fraction = 0.540333333332  Min(alpha1) = -5.05556610392e-33  Max(alpha1) = 1.00000876137
MULES: Solving for alpha1
Liquid phase volume fraction = 0.540333333332  Min(alpha1) = -5.05556610392e-33  Max(alpha1) = 1.00000952872
smoothSolver:  Solving for Ux, Initial residual = 0.0974449447956, Final residual = 6.45566832646e-07, No Iterations 12
smoothSolver:  Solving for Uy, Initial residual = 0.0980409425131, Final residual = 8.33814083707e-07, No Iterations 12
smoothSolver:  Solving for Uz, Initial residual = 0.139047603243, Final residual = 6.03372714101e-07, No Iterations 13
GAMG:  Solving for pd, Initial residual = 0.00180357397619, Final residual = 1.16613040839e-05, No Iterations 2
time step continuity errors : sum local = 0.000372528705581, global = -2.07015720528e-06, cumulative = -0.000209145856269
GAMG:  Solving for pd, Initial residual = 0.000231778036284, Final residual = 6.70392849367e-07, No Iterations 3
time step continuity errors : sum local = 2.13244146962e-05, global = -7.89086812029e-07, cumulative = -0.000209934943081
GAMG:  Solving for pd, Initial residual = 2.02582053497e-05, Final residual = 1.43414544269e-07, No Iterations 3
time step continuity errors : sum local = 4.58538381537e-06, global = 3.75611480436e-07, cumulative = -0.000209559331601
GAMGPCG:  Solving for pd, Initial residual = 2.45236432067e-06, Final residual = 9.89064403432e-09, No Iterations 2
time step continuity errors : sum local = 3.16298739843e-07, global = 1.43300411177e-08, cumulative = -0.00020954500156
BiCGStab:  Solving for epsilon, Initial residual = 0.0171325011187, Final residual = 7.48323959662e-09, No Iterations 2
BiCGStab:  Solving for k, Initial residual = 0.0707516875134, Final residual = 2.45520703565e-10, No Iterations 3
ExecutionTime = 13.37 s  ClockTime = 14 s

Courant Number mean: 0.00739355436946 max: 0.434571277798 velocity magnitude: 1.11913434746
deltaT = 0.00875
Time = 0.09125

GAMG:  Solving for cellDisplacementx, Initial residual = 0, Final residual = 0, No Iterations 0
GAMG:  Solving for cellDisplacementy, Initial residual = 0, Final residual = 0, No Iterations 0
GAMG:  Solving for cellDisplacementz, Initial residual = 0, Final residual = 0, No Iterations 0
volume continuity errors : volume = 1, old volume = 1, max error = 0, sum local = 0, global = 0
PIMPLE: iteration 1
MULES: Solving for alpha1
Liquid phase volume fraction = 0.540333333332  Min(alpha1) = -5.05556610392e-33  Max(alpha1) = 1.00001039031
MULES: Solving for alpha1
Liquid phase volume fraction = 0.540333333332  Min(alpha1) = -2.0905432345e-34  Max(alpha1) = 1.00001125457
MULES: Solving for alpha1
Liquid phase volume fraction = 0.540333333332  Min(alpha1) = -1.66819806549e-36  Max(alpha1) = 1.00001210712
smoothSolver:  Solving for Ux, Initial residual = 0.0899562942676, Final residual = 7.01799218768e-07, No Iterations 12
smoothSolver:  Solving for Uy, Initial residual = 0.0899570763759, Final residual = 9.10484349618e-07, No Iterations 12
smoothSolver:  Solving for Uz, Initial residual = 0.131515619104, Final residual = 6.55739814529e-07, No Iterations 13
GAMG:  Solving for pd, Initial residual = 0.00189607478665, Final residual = 1.21654847315e-05, No Iterations 2
time step continuity errors : sum local = 0.000389355766811, global = 2.67945988818e-07, cumulative = -0.000209277055571
GAMG:  Solving for pd, Initial residual = 0.000249763125083, Final residual = 7.2506433903e-07, No Iterations 3
time step continuity errors : sum local = 2.31004127926e-05, global = -6.54093254269e-07, cumulative = -0.000209931148825
GAMG:  Solving for pd, Initial residual = 2.07988154373e-05, Final residual = 1.49915702343e-07, No Iterations 3
time step continuity errors : sum local = 4.80153986749e-06, global = 2.38748463924e-07, cumulative = -0.000209692400361
GAMGPCG:  Solving for pd, Initial residual = 2.4930731593e-06, Final residual = 1.00627918946e-09, No Iterations 3
time step continuity errors : sum local = 3.22401321457e-08, global = -3.94698100438e-10, cumulative = -0.000209692795059
BiCGStab:  Solving for epsilon, Initial residual = 0.0184111002578, Final residual = 7.83359342143e-09, No Iterations 2
BiCGStab:  Solving for k, Initial residual = 0.0634497027806, Final residual = 2.36728575082e-10, No Iterations 3
ExecutionTime = 14.8 s  ClockTime = 15 s

Courant Number mean: 0.00801871145903 max: 0.434013257596 velocity magnitude: 1.0819997865
deltaT = 0.00875
Time = 0.1

GAMG:  Solving for cellDisplacementx, Initial residual = 0, Final residual = 0, No Iterations 0
GAMG:  Solving for cellDisplacementy, Initial residual = 0, Final residual = 0, No Iterations 0
GAMG:  Solving for cellDisplacementz, Initial residual = 0, Final residual = 0, No Iterations 0
volume continuity errors : volume = 1, old volume = 1, max error = 0, sum local = 0, global = 0
PIMPLE: iteration 1
MULES: Solving for alpha1
Liquid phase volume fraction = 0.540333333332  Min(alpha1) = -5.72693866777e-39  Max(alpha1) = 1.00001196403
MULES: Solving for alpha1
Liquid phase volume fraction = 0.540333333332  Min(alpha1) = -5.72693866777e-39  Max(alpha1) = 1.00001180983
MULES: Solving for alpha1
Liquid phase volume fraction = 0.540333333332  Min(alpha1) = -5.72693866777e-39  Max(alpha1) = 1.00001164487
smoothSolver:  Solving for Ux, Initial residual = 0.0838740108694, Final residual = 7.36231782495e-07, No Iterations 12
smoothSolver:  Solving for Uy, Initial residual = 0.0834952932791, Final residual = 9.55789894549e-07, No Iterations 12
smoothSolver:  Solving for Uz, Initial residual = 0.124749512084, Final residual = 6.95683081225e-07, No Iterations 13
GAMG:  Solving for pd, Initial residual = 0.0018921960431, Final residual = 1.21426185397e-05, No Iterations 2
time step continuity errors : sum local = 0.000388900365706, global = 1.75252517055e-06, cumulative = -0.000207940269889
GAMG:  Solving for pd, Initial residual = 0.0002600242315, Final residual = 7.84698333122e-07, No Iterations 3
time step continuity errors : sum local = 2.5015397081e-05, global = -4.24080507515e-07, cumulative = -0.000208364350396
GAMG:  Solving for pd, Initial residual = 2.10325343671e-05, Final residual = 1.44163824171e-07, No Iterations 3
time step continuity errors : sum local = 4.61935840356e-06, global = 1.09429528785e-07, cumulative = -0.000208254920867
GAMGPCG:  Solving for pd, Initial residual = 2.46575450638e-06, Final residual = 1.00055559605e-09, No Iterations 3
time step continuity errors : sum local = 3.20802859613e-08, global = -2.45054705223e-10, cumulative = -0.000208255165922
BiCGStab:  Solving for epsilon, Initial residual = 0.0195882911007, Final residual = 8.35568195019e-09, No Iterations 2
BiCGStab:  Solving for k, Initial residual = 0.0575324250765, Final residual = 2.20609695073e-10, No Iterations 3
ExecutionTime = 17.12 s  ClockTime = 18 s

Courant Number mean: 0.00860945488681 max: 0.413156528488 velocity magnitude: 1.0151902004
deltaT = 0.00909090909091
Time = 0.109091

GAMG:  Solving for cellDisplacementx, Initial residual = 0, Final residual = 0, No Iterations 0
GAMG:  Solving for cellDisplacementy, Initial residual = 0, Final residual = 0, No Iterations 0
GAMG:  Solving for cellDisplacementz, Initial residual = 0, Final residual = 0, No Iterations 0
volume continuity errors : volume = 1, old volume = 1, max error = 0, sum local = 0, global = 0
PIMPLE: iteration 1
MULES: Solving for alpha1
Liquid phase volume fraction = 0.540333333332  Min(alpha1) = -6.86636247505e-43  Max(alpha1) = 1.00001144567
MULES: Solving for alpha1
Liquid phase volume fraction = 0.540333333332  Min(alpha1) = -4.44556317786e-34  Max(alpha1) = 1.00001123446
MULES: Solving for alpha1
Liquid phase volume fraction = 0.540333333333  Min(alpha1) = -7.90394846914e-43  Max(alpha1) = 1.00001101193
smoothSolver:  Solving for Ux, Initial residual = 0.0820643602646, Final residual = 4.329037811e-07, No Iterations 13
smoothSolver:  Solving for Uy, Initial residual = 0.0811710208359, Final residual = 5.66581834589e-07, No Iterations 13
smoothSolver:  Solving for Uz, Initial residual = 0.125780589711, Final residual = 9.92581329671e-07, No Iterations 13
GAMG:  Solving for pd, Initial residual = 0.0018712426665, Final residual = 1.19185321517e-05, No Iterations 2
time step continuity errors : sum local = 0.000406400615205, global = 3.4685236522e-06, cumulative = -0.00020478664227
GAMG:  Solving for pd, Initial residual = 0.000272934757169, Final residual = 8.76486855736e-07, No Iterations 3
time step continuity errors : sum local = 2.97424275528e-05, global = -2.52830629234e-07, cumulative = -0.000205039472899
GAMG:  Solving for pd, Initial residual = 2.20273044278e-05, Final residual = 1.45114271196e-07, No Iterations 3
time step continuity errors : sum local = 4.9494854338e-06, global = -2.69094452329e-09, cumulative = -0.000205042163844
GAMGPCG:  Solving for pd, Initial residual = 2.63533355361e-06, Final residual = 1.02667206998e-09, No Iterations 3
time step continuity errors : sum local = 3.50505654684e-08, global = 1.43830218238e-11, cumulative = -0.000205042149461
BiCGStab:  Solving for epsilon, Initial residual = 0.0214436172631, Final residual = 1.79729182468e-11, No Iterations 3
BiCGStab:  Solving for k, Initial residual = 0.0545530301565, Final residual = 2.66162809351e-10, No Iterations 3
ExecutionTime = 18.55 s  ClockTime = 19 s

Courant Number mean: 0.00955197444687 max: 0.44050042119 velocity magnitude: 0.943258855587
deltaT = 0.00909090909091
Time = 0.118182

GAMG:  Solving for cellDisplacementx, Initial residual = 0, Final residual = 0, No Iterations 0
GAMG:  Solving for cellDisplacementy, Initial residual = 0, Final residual = 0, No Iterations 0
GAMG:  Solving for cellDisplacementz, Initial residual = 0, Final residual = 0, No Iterations 0
volume continuity errors : volume = 1, old volume = 1, max error = 0, sum local = 0, global = 0
PIMPLE: iteration 1
MULES: Solving for alpha1
Liquid phase volume fraction = 0.540333333332  Min(alpha1) = 0  Max(alpha1) = 1.00001074854
MULES: Solving for alpha1
Liquid phase volume fraction = 0.540333333332  Min(alpha1) = 0  Max(alpha1) = 1.00001047426
MULES: Solving for alpha1
Liquid phase volume fraction = 0.540333333332  Min(alpha1) = 0  Max(alpha1) = 1.00001019
smoothSolver:  Solving for Ux, Initial residual = 0.0766751167757, Final residual = 4.31698154715e-07, No Iterations 13
smoothSolver:  Solving for Uy, Initial residual = 0.0755700890033, Final residual = 5.62984856323e-07, No Iterations 13
smoothSolver:  Solving for Uz, Initial residual = 0.121289325735, Final residual = 4.34666051376e-07, No Iterations 14
GAMG:  Solving for pd, Initial residual = 0.0017759394524, Final residual = 1.08677008892e-05, No Iterations 2
time step continuity errors : sum local = 0.000370786966031, global = 4.7223038584e-06, cumulative = -0.000200319845602
GAMG:  Solving for pd, Initial residual = 0.000270088183793, Final residual = 8.87969149376e-07, No Iterations 3
time step continuity errors : sum local = 3.01501757474e-05, global = -2.66559331281e-07, cumulative = -0.000200586404934
GAMG:  Solving for pd, Initial residual = 2.2283489388e-05, Final residual = 1.40523703729e-07, No Iterations 3
time step continuity errors : sum local = 4.79555524463e-06, global = -1.22006824367e-07, cumulative = -0.000200708411758
GAMGPCG:  Solving for pd, Initial residual = 2.66274933597e-06, Final residual = 1.02689890077e-09, No Iterations 3
time step continuity errors : sum local = 3.50811128934e-08, global = 1.54914696414e-10, cumulative = -0.000200708256843
BiCGStab:  Solving for epsilon, Initial residual = 0.0225148784715, Final residual = 1.94085327005e-11, No Iterations 3
BiCGStab:  Solving for k, Initial residual = 0.0501777657498, Final residual = 2.13689487452e-10, No Iterations 3
ExecutionTime = 19.99 s  ClockTime = 20 s

Courant Number mean: 0.0101330798391 max: 0.437193869742 velocity magnitude: 0.878671481492
deltaT = 0.00909090909091
Time = 0.127273

GAMG:  Solving for cellDisplacementx, Initial residual = 0, Final residual = 0, No Iterations 0
GAMG:  Solving for cellDisplacementy, Initial residual = 0, Final residual = 0, No Iterations 0
GAMG:  Solving for cellDisplacementz, Initial residual = 0, Final residual = 0, No Iterations 0
volume continuity errors : volume = 1, old volume = 1, max error = 0, sum local = 0, global = 0
PIMPLE: iteration 1
MULES: Solving for alpha1
Liquid phase volume fraction = 0.540333333332  Min(alpha1) = 0  Max(alpha1) = 1.00000987203
MULES: Solving for alpha1
Liquid phase volume fraction = 0.540333333332  Min(alpha1) = 0  Max(alpha1) = 1.00000969178
MULES: Solving for alpha1
Liquid phase volume fraction = 0.540333333332  Min(alpha1) = 0  Max(alpha1) = 1.00000961485
smoothSolver:  Solving for Ux, Initial residual = 0.0719266249993, Final residual = 9.8932653943e-07, No Iterations 12
smoothSolver:  Solving for Uy, Initial residual = 0.0703859203579, Final residual = 5.42373334725e-07, No Iterations 13
smoothSolver:  Solving for Uz, Initial residual = 0.117199802044, Final residual = 4.43665769735e-07, No Iterations 14
GAMG:  Solving for pd, Initial residual = 0.00171694913849, Final residual = 1.03085112242e-05, No Iterations 2
time step continuity errors : sum local = 0.000352219733562, global = 5.11159625072e-06, cumulative = -0.000195596660592
GAMG:  Solving for pd, Initial residual = 0.000267237533581, Final residual = 8.80737229948e-07, No Iterations 3
time step continuity errors : sum local = 2.99382776336e-05, global = -6.41560401184e-07, cumulative = -0.000196238220994
GAMG:  Solving for pd, Initial residual = 2.30243324394e-05, Final residual = 1.41874839192e-07, No Iterations 3
time step continuity errors : sum local = 4.84966049531e-06, global = -2.38839323588e-07, cumulative = -0.000196477060317
GAMGPCG:  Solving for pd, Initial residual = 2.73151284986e-06, Final residual = 1.02309288551e-09, No Iterations 3
time step continuity errors : sum local = 3.50046520187e-08, global = 1.46468236603e-10, cumulative = -0.000196476913849
BiCGStab:  Solving for epsilon, Initial residual = 0.0235194060835, Final residual = 8.7983392152e-09, No Iterations 2
BiCGStab:  Solving for k, Initial residual = 0.046470498183, Final residual = 1.65240942999e-10, No Iterations 3
ExecutionTime = 21.42 s  ClockTime = 22 s

Courant Number mean: 0.0106989624566 max: 0.446760522528 velocity magnitude: 0.837827443562
deltaT = 0.00909090909091
Time = 0.136364

GAMG:  Solving for cellDisplacementx, Initial residual = 0, Final residual = 0, No Iterations 0
GAMG:  Solving for cellDisplacementy, Initial residual = 0, Final residual = 0, No Iterations 0
GAMG:  Solving for cellDisplacementz, Initial residual = 0, Final residual = 0, No Iterations 0
volume continuity errors : volume = 1, old volume = 1, max error = 0, sum local = 0, global = 0
PIMPLE: iteration 1
MULES: Solving for alpha1
Liquid phase volume fraction = 0.540333333333  Min(alpha1) = 0  Max(alpha1) = 1.00000949954
MULES: Solving for alpha1
Liquid phase volume fraction = 0.540333333332  Min(alpha1) = 0  Max(alpha1) = 1.00000937003
MULES: Solving for alpha1
Liquid phase volume fraction = 0.540333333332  Min(alpha1) = 0  Max(alpha1) = 1.00000922688
smoothSolver:  Solving for Ux, Initial residual = 0.0678150264066, Final residual = 9.32496685101e-07, No Iterations 12
smoothSolver:  Solving for Uy, Initial residual = 0.0656597673747, Final residual = 5.09108746967e-07, No Iterations 13
smoothSolver:  Solving for Uz, Initial residual = 0.112707943117, Final residual = 4.45218348952e-07, No Iterations 14
GAMG:  Solving for pd, Initial residual = 0.00177551494492, Final residual = 1.03260851813e-05, No Iterations 2
time step continuity errors : sum local = 0.000353233014402, global = 5.01091956709e-06, cumulative = -0.000191465994282
GAMG:  Solving for pd, Initial residual = 0.000269674865241, Final residual = 8.50028992196e-07, No Iterations 3
time step continuity errors : sum local = 2.89025267325e-05, global = -1.08952658498e-06, cumulative = -0.000192555520867
GAMG:  Solving for pd, Initial residual = 2.35112034116e-05, Final residual = 1.50287323407e-07, No Iterations 3
time step continuity errors : sum local = 5.14450666137e-06, global = -3.49528361797e-07, cumulative = -0.000192905049229
GAMGPCG:  Solving for pd, Initial residual = 2.81223938216e-06, Final residual = 1.04501826125e-09, No Iterations 3
time step continuity errors : sum local = 3.579800671e-08, global = 6.35797552182e-11, cumulative = -0.000192904985649
BiCGStab:  Solving for epsilon, Initial residual = 0.0244710996124, Final residual = 7.91767422119e-09, No Iterations 2
BiCGStab:  Solving for k, Initial residual = 0.04328631864, Final residual = 1.21171182822e-10, No Iterations 3
ExecutionTime = 22.85 s  ClockTime = 23 s

Courant Number mean: 0.0112511460009 max: 0.461776256923 velocity magnitude: 0.84658980435
deltaT = 0.00909090909091
Time = 0.145455

GAMG:  Solving for cellDisplacementx, Initial residual = 0, Final residual = 0, No Iterations 0
GAMG:  Solving for cellDisplacementy, Initial residual = 0, Final residual = 0, No Iterations 0
GAMG:  Solving for cellDisplacementz, Initial residual = 0, Final residual = 0, No Iterations 0
volume continuity errors : volume = 1, old volume = 1, max error = 0, sum local = 0, global = 0
PIMPLE: iteration 1
MULES: Solving for alpha1
Liquid phase volume fraction = 0.540333333332  Min(alpha1) = 0  Max(alpha1) = 1.00000904309
MULES: Solving for alpha1
Liquid phase volume fraction = 0.540333333332  Min(alpha1) = 0  Max(alpha1) = 1.00000884615
MULES: Solving for alpha1
Liquid phase volume fraction = 0.540333333332  Min(alpha1) = 0  Max(alpha1) = 1.00000863685
smoothSolver:  Solving for Ux, Initial residual = 0.063744360962, Final residual = 8.61984303168e-07, No Iterations 12
smoothSolver:  Solving for Uy, Initial residual = 0.0615931398688, Final residual = 4.67206007954e-07, No Iterations 13
smoothSolver:  Solving for Uz, Initial residual = 0.10860751111, Final residual = 4.36909291064e-07, No Iterations 14
GAMG:  Solving for pd, Initial residual = 0.00184177560832, Final residual = 1.053182467e-05, No Iterations 2
time step continuity errors : sum local = 0.000360579736527, global = 3.93823148345e-06, cumulative = -0.000188966754165
GAMG:  Solving for pd, Initial residual = 0.000278942701919, Final residual = 8.10200602317e-07, No Iterations 3
time step continuity errors : sum local = 2.75434671674e-05, global = -1.5914045956e-06, cumulative = -0.000190558158761
GAMG:  Solving for pd, Initial residual = 2.43968492495e-05, Final residual = 1.55230893934e-07, No Iterations 3
time step continuity errors : sum local = 5.31918174429e-06, global = -4.21865779436e-07, cumulative = -0.000190980024541
GAMGPCG:  Solving for pd, Initial residual = 2.94697199879e-06, Final residual = 1.21469557652e-09, No Iterations 3
time step continuity errors : sum local = 4.16476903331e-08, global = -1.20280779042e-10, cumulative = -0.000190980144821
BiCGStab:  Solving for epsilon, Initial residual = 0.025400448661, Final residual = 8.37759314741e-09, No Iterations 2
BiCGStab:  Solving for k, Initial residual = 0.040606570953, Final residual = 8.94378015168e-11, No Iterations 3
ExecutionTime = 24.27 s  ClockTime = 25 s

Courant Number mean: 0.0117941127347 max: 0.459571934769 velocity magnitude: 0.842548547069
deltaT = 0.00909090909091
Time = 0.154545

GAMG:  Solving for cellDisplacementx, Initial residual = 0, Final residual = 0, No Iterations 0
GAMG:  Solving for cellDisplacementy, Initial residual = 0, Final residual = 0, No Iterations 0
GAMG:  Solving for cellDisplacementz, Initial residual = 0, Final residual = 0, No Iterations 0
volume continuity errors : volume = 1, old volume = 1, max error = 0, sum local = 0, global = 0
PIMPLE: iteration 1
MULES: Solving for alpha1
Liquid phase volume fraction = 0.540333333332  Min(alpha1) = 0  Max(alpha1) = 1.00000839204
MULES: Solving for alpha1
Liquid phase volume fraction = 0.540333333333  Min(alpha1) = 0  Max(alpha1) = 1.00000822652
MULES: Solving for alpha1
Liquid phase volume fraction = 0.540333333332  Min(alpha1) = 0  Max(alpha1) = 1.00000811088
smoothSolver:  Solving for Ux, Initial residual = 0.0599670654433, Final residual = 7.82113425586e-07, No Iterations 12
smoothSolver:  Solving for Uy, Initial residual = 0.0577915917273, Final residual = 9.91017107789e-07, No Iterations 12
smoothSolver:  Solving for Uz, Initial residual = 0.105401517132, Final residual = 9.86576169203e-07, No Iterations 13
GAMG:  Solving for pd, Initial residual = 0.00180161162596, Final residual = 1.06681915948e-05, No Iterations 2
time step continuity errors : sum local = 0.00036548845485, global = 9.95355146204e-07, cumulative = -0.000189984789675
GAMG:  Solving for pd, Initial residual = 0.000280685595077, Final residual = 8.05404857551e-07, No Iterations 3
time step continuity errors : sum local = 2.73736134664e-05, global = -2.52469412292e-06, cumulative = -0.000192509483798
GAMG:  Solving for pd, Initial residual = 2.50455687584e-05, Final residual = 1.44964649485e-07, No Iterations 3
time step continuity errors : sum local = 4.97010290527e-06, global = -4.96156634698e-07, cumulative = -0.000193005640433
GAMGPCG:  Solving for pd, Initial residual = 3.0208962543e-06, Final residual = 1.33105894826e-09, No Iterations 3
time step continuity errors : sum local = 4.56721253409e-08, global = -4.31361921184e-10, cumulative = -0.000193006071795
BiCGStab:  Solving for epsilon, Initial residual = 0.0262967711624, Final residual = 9.92346174581e-09, No Iterations 2
BiCGStab:  Solving for k, Initial residual = 0.0382790128273, Final residual = 8.33037478677e-11, No Iterations 3
ExecutionTime = 25.69 s  ClockTime = 26 s

Courant Number mean: 0.0123309944795 max: 0.467815367161 velocity magnitude: 0.857661506453
deltaT = 0.00909090909091
Time = 0.163636

GAMG:  Solving for cellDisplacementx, Initial residual = 0, Final residual = 0, No Iterations 0
GAMG:  Solving for cellDisplacementy, Initial residual = 0, Final residual = 0, No Iterations 0
GAMG:  Solving for cellDisplacementz, Initial residual = 0, Final residual = 0, No Iterations 0
volume continuity errors : volume = 1, old volume = 1, max error = 0, sum local = 0, global = 0
PIMPLE: iteration 1
MULES: Solving for alpha1
Liquid phase volume fraction = 0.540333333332  Min(alpha1) = 0  Max(alpha1) = 1.00000797537
MULES: Solving for alpha1
Liquid phase volume fraction = 0.540333333332  Min(alpha1) = 0  Max(alpha1) = 1.00000781664
MULES: Solving for alpha1
Liquid phase volume fraction = 0.540333333333  Min(alpha1) = 0  Max(alpha1) = 1.00000764928
smoothSolver:  Solving for Ux, Initial residual = 0.0565764225496, Final residual = 7.04680558265e-07, No Iterations 12
smoothSolver:  Solving for Uy, Initial residual = 0.0543582918561, Final residual = 8.83545924005e-07, No Iterations 12
smoothSolver:  Solving for Uz, Initial residual = 0.102312176409, Final residual = 9.54237253239e-07, No Iterations 13
GAMG:  Solving for pd, Initial residual = 0.00177311238971, Final residual = 1.06282054908e-05, No Iterations 2
time step continuity errors : sum local = 0.000364522700225, global = -1.87655699844e-06, cumulative = -0.000194882628793
GAMG:  Solving for pd, Initial residual = 0.00027855474185, Final residual = 8.10336677154e-07, No Iterations 3
time step continuity errors : sum local = 2.75520581331e-05, global = -3.38217476177e-06, cumulative = -0.000198264803555
GAMG:  Solving for pd, Initial residual = 2.51561813497e-05, Final residual = 1.30550650958e-07, No Iterations 3
time step continuity errors : sum local = 4.47884342968e-06, global = -5.54612344184e-07, cumulative = -0.000198819415899
GAMGPCG:  Solving for pd, Initial residual = 3.04205546907e-06, Final residual = 1.21710928594e-09, No Iterations 3
time step continuity errors : sum local = 4.18076511425e-08, global = -7.2966855961e-10, cumulative = -0.000198820145568
BiCGStab:  Solving for epsilon, Initial residual = 0.0271637061097, Final residual = 1.66481160522e-11, No Iterations 3
BiCGStab:  Solving for k, Initial residual = 0.0362453697802, Final residual = 8.71315783637e-11, No Iterations 3
ExecutionTime = 27.13 s  ClockTime = 28 s

Courant Number mean: 0.0128558129726 max: 0.475686478786 velocity magnitude: 0.872091877766
deltaT = 0.00909090909091
Time = 0.172727

GAMG:  Solving for cellDisplacementx, Initial residual = 0, Final residual = 0, No Iterations 0
GAMG:  Solving for cellDisplacementy, Initial residual = 0, Final residual = 0, No Iterations 0
GAMG:  Solving for cellDisplacementz, Initial residual = 0, Final residual = 0, No Iterations 0
volume continuity errors : volume = 1, old volume = 1, max error = 0, sum local = 0, global = 0
PIMPLE: iteration 1
MULES: Solving for alpha1
Liquid phase volume fraction = 0.540333333333  Min(alpha1) = 0  Max(alpha1) = 1.00000747624
MULES: Solving for alpha1
Liquid phase volume fraction = 0.540333333332  Min(alpha1) = 0  Max(alpha1) = 1.00000729556
MULES: Solving for alpha1
Liquid phase volume fraction = 0.540333333333  Min(alpha1) = 0  Max(alpha1) = 1.00000710813
smoothSolver:  Solving for Ux, Initial residual = 0.0534559803704, Final residual = 6.30373044925e-07, No Iterations 12
smoothSolver:  Solving for Uy, Initial residual = 0.0511380875797, Final residual = 7.75884188835e-07, No Iterations 12
smoothSolver:  Solving for Uz, Initial residual = 0.0986629514392, Final residual = 9.15882547707e-07, No Iterations 13
GAMG:  Solving for pd, Initial residual = 0.00186390655911, Final residual = 1.05743461095e-05, No Iterations 2
time step continuity errors : sum local = 0.000362952979852, global = -2.93437439839e-06, cumulative = -0.000201754519966
GAMG:  Solving for pd, Initial residual = 0.000286098020446, Final residual = 8.32144163625e-07, No Iterations 3
time step continuity errors : sum local = 2.8303732089e-05, global = -3.68584468043e-06, cumulative = -0.000205440364646
GAMG:  Solving for pd, Initial residual = 2.58870386163e-05, Final residual = 1.22294599121e-07, No Iterations 3
time step continuity errors : sum local = 4.1963654215e-06, global = -5.88885106922e-07, cumulative = -0.000206029249753
GAMGPCG:  Solving for pd, Initial residual = 3.16969058856e-06, Final residual = 1.0774670898e-09, No Iterations 3
time step continuity errors : sum local = 3.70324701291e-08, global = -8.46315376643e-10, cumulative = -0.000206030096069
BiCGStab:  Solving for epsilon, Initial residual = 0.0280139380075, Final residual = 1.76587729267e-11, No Iterations 3
BiCGStab:  Solving for k, Initial residual = 0.0344596890635, Final residual = 9.00326561851e-11, No Iterations 3
ExecutionTime = 28.56 s  ClockTime = 29 s

Courant Number mean: 0.0133634152535 max: 0.468560053432 velocity magnitude: 0.859026764617
deltaT = 0.00909090909091
Time = 0.181818

GAMG:  Solving for cellDisplacementx, Initial residual = 0, Final residual = 0, No Iterations 0
GAMG:  Solving for cellDisplacementy, Initial residual = 0, Final residual = 0, No Iterations 0
GAMG:  Solving for cellDisplacementz, Initial residual = 0, Final residual = 0, No Iterations 0
volume continuity errors : volume = 1, old volume = 1, max error = 0, sum local = 0, global = 0
PIMPLE: iteration 1
MULES: Solving for alpha1
Liquid phase volume fraction = 0.540333333332  Min(alpha1) = 0  Max(alpha1) = 1.00000691243
MULES: Solving for alpha1
Liquid phase volume fraction = 0.540333333332  Min(alpha1) = 0  Max(alpha1) = 1.00000671075
MULES: Solving for alpha1
Liquid phase volume fraction = 0.540333333332  Min(alpha1) = 0  Max(alpha1) = 1.00000655674
smoothSolver:  Solving for Ux, Initial residual = 0.0502608211824, Final residual = 5.58299841483e-07, No Iterations 12
smoothSolver:  Solving for Uy, Initial residual = 0.048104452146, Final residual = 6.73398225381e-07, No Iterations 12
smoothSolver:  Solving for Uz, Initial residual = 0.0959590959387, Final residual = 8.72237370842e-07, No Iterations 13
GAMG:  Solving for pd, Initial residual = 0.00185013371446, Final residual = 1.0465693116e-05, No Iterations 2
time step continuity errors : sum local = 0.000359202640073, global = -3.28693949347e-06, cumulative = -0.000209317035562
GAMG:  Solving for pd, Initial residual = 0.000288585692157, Final residual = 8.52567829024e-07, No Iterations 3
time step continuity errors : sum local = 2.90035471588e-05, global = -3.80822927262e-06, cumulative = -0.000213125264835
GAMG:  Solving for pd, Initial residual = 2.64414256973e-05, Final residual = 1.18198733583e-07, No Iterations 3
time step continuity errors : sum local = 4.05412209784e-06, global = -6.06127690526e-07, cumulative = -0.000213731392525
GAMGPCG:  Solving for pd, Initial residual = 3.23105625027e-06, Final residual = 1.00515452061e-09, No Iterations 3
time step continuity errors : sum local = 3.4540123278e-08, global = -1.03156682495e-09, cumulative = -0.000213732424092
BiCGStab:  Solving for epsilon, Initial residual = 0.0288119171139, Final residual = 1.72974508672e-11, No Iterations 3
BiCGStab:  Solving for k, Initial residual = 0.0328498677715, Final residual = 9.19637805046e-11, No Iterations 3
ExecutionTime = 30.04 s  ClockTime = 30 s

Courant Number mean: 0.013850186749 max: 0.467927330642 velocity magnitude: 0.857866772836
deltaT = 0.00909090909091
Time = 0.190909

GAMG:  Solving for cellDisplacementx, Initial residual = 0, Final residual = 0, No Iterations 0
GAMG:  Solving for cellDisplacementy, Initial residual = 0, Final residual = 0, No Iterations 0
GAMG:  Solving for cellDisplacementz, Initial residual = 0, Final residual = 0, No Iterations 0
volume continuity errors : volume = 1, old volume = 1, max error = 0, sum local = 0, global = 0
PIMPLE: iteration 1
MULES: Solving for alpha1
Liquid phase volume fraction = 0.540333333333  Min(alpha1) = 0  Max(alpha1) = 1.00000649473
MULES: Solving for alpha1
Liquid phase volume fraction = 0.540333333332  Min(alpha1) = 0  Max(alpha1) = 1.00000642329
MULES: Solving for alpha1
Liquid phase volume fraction = 0.540333333332  Min(alpha1) = 0  Max(alpha1) = 1.00000634276
smoothSolver:  Solving for Ux, Initial residual = 0.0472167727478, Final residual = 4.89569404097e-07, No Iterations 12
smoothSolver:  Solving for Uy, Initial residual = 0.0450339249028, Final residual = 5.76382283788e-07, No Iterations 12
smoothSolver:  Solving for Uz, Initial residual = 0.0938262822471, Final residual = 8.30455192754e-07, No Iterations 13
GAMG:  Solving for pd, Initial residual = 0.00176736182276, Final residual = 1.01236321058e-05, No Iterations 2
time step continuity errors : sum local = 0.000347588535436, global = -3.78171857664e-06, cumulative = -0.000217514142669
GAMG:  Solving for pd, Initial residual = 0.000285055958613, Final residual = 8.58250276183e-07, No Iterations 3
time step continuity errors : sum local = 2.92309267812e-05, global = -3.62630147603e-06, cumulative = -0.000221140444145
GAMG:  Solving for pd, Initial residual = 2.63264036395e-05, Final residual = 1.18735658055e-07, No Iterations 3
time step continuity errors : sum local = 4.07325684567e-06, global = -5.68554177274e-07, cumulative = -0.000221708998322
GAMGPCG:  Solving for pd, Initial residual = 3.20638039499e-06, Final residual = 8.96295135903e-10, No Iterations 3
time step continuity errors : sum local = 3.08044869104e-08, global = -9.17473472444e-10, cumulative = -0.000221709915796
BiCGStab:  Solving for epsilon, Initial residual = 0.0295741168821, Final residual = 1.64285833976e-11, No Iterations 3
BiCGStab:  Solving for k, Initial residual = 0.0313993531515, Final residual = 9.221035997e-11, No Iterations 3
ExecutionTime = 31.46 s  ClockTime = 32 s

Courant Number mean: 0.0143095051216 max: 0.481580053407 velocity magnitude: 0.88289676457
deltaT = 0.00909090909091
Time = 0.2

GAMG:  Solving for cellDisplacementx, Initial residual = 0, Final residual = 0, No Iterations 0
GAMG:  Solving for cellDisplacementy, Initial residual = 0, Final residual = 0, No Iterations 0
GAMG:  Solving for cellDisplacementz, Initial residual = 0, Final residual = 0, No Iterations 0
volume continuity errors : volume = 1, old volume = 1, max error = 0, sum local = 0, global = 0
PIMPLE: iteration 1
MULES: Solving for alpha1
Liquid phase volume fraction = 0.540333333332  Min(alpha1) = 0  Max(alpha1) = 1.00000624396
MULES: Solving for alpha1
Liquid phase volume fraction = 0.540333333332  Min(alpha1) = 0  Max(alpha1) = 1.00000613621
MULES: Solving for alpha1
Liquid phase volume fraction = 0.540333333333  Min(alpha1) = 0  Max(alpha1) = 1.00000601998
smoothSolver:  Solving for Ux, Initial residual = 0.0443516339064, Final residual = 4.2810853741e-07, No Iterations 12
smoothSolver:  Solving for Uy, Initial residual = 0.0420604534856, Final residual = 4.8572663218e-07, No Iterations 12
smoothSolver:  Solving for Uz, Initial residual = 0.0908926999081, Final residual = 7.88267631294e-07, No Iterations 13
GAMG:  Solving for pd, Initial residual = 0.00184184004489, Final residual = 1.00900173938e-05, No Iterations 2
time step continuity errors : sum local = 0.000346583520469, global = -3.75880720848e-06, cumulative = -0.000225468723004
GAMG:  Solving for pd, Initial residual = 0.000290379320684, Final residual = 8.66981673127e-07, No Iterations 3
time step continuity errors : sum local = 2.95683158211e-05, global = -2.99949267735e-06, cumulative = -0.000228468215681
GAMG:  Solving for pd, Initial residual = 2.64450958742e-05, Final residual = 1.24206273073e-07, No Iterations 3
time step continuity errors : sum local = 4.26177930563e-06, global = -4.77208696696e-07, cumulative = -0.000228945424378
GAMGPCG:  Solving for pd, Initial residual = 3.2700342886e-06, Final residual = 1.10248936556e-09, No Iterations 3
time step continuity errors : sum local = 3.78941020528e-08, global = -9.30982312287e-10, cumulative = -0.00022894635536
BiCGStab:  Solving for epsilon, Initial residual = 0.0302991456224, Final residual = 1.59552310924e-11, No Iterations 3
BiCGStab:  Solving for k, Initial residual = 0.0301024617539, Final residual = 8.97755963214e-11, No Iterations 3
ExecutionTime = 33.78 s  ClockTime = 34 s

Courant Number mean: 0.0147356539044 max: 0.482071551071 velocity magnitude: 0.883797843621
deltaT = 0.00909090909091
Time = 0.209091

GAMG:  Solving for cellDisplacementx, Initial residual = 0, Final residual = 0, No Iterations 0
GAMG:  Solving for cellDisplacementy, Initial residual = 0, Final residual = 0, No Iterations 0
GAMG:  Solving for cellDisplacementz, Initial residual = 0, Final residual = 0, No Iterations 0
volume continuity errors : volume = 1, old volume = 1, max error = 0, sum local = 0, global = 0
PIMPLE: iteration 1
MULES: Solving for alpha1
Liquid phase volume fraction = 0.540333333333  Min(alpha1) = 0  Max(alpha1) = 1.00000586584
MULES: Solving for alpha1
Liquid phase volume fraction = 0.540333333332  Min(alpha1) = 0  Max(alpha1) = 1.00000569659
MULES: Solving for alpha1
Liquid phase volume fraction = 0.540333333332  Min(alpha1) = 0  Max(alpha1) = 1.00000552142
smoothSolver:  Solving for Ux, Initial residual = 0.0414446169474, Final residual = 9.13197262549e-07, No Iterations 11
smoothSolver:  Solving for Uy, Initial residual = 0.0392592800044, Final residual = 9.84388713065e-07, No Iterations 11
smoothSolver:  Solving for Uz, Initial residual = 0.0880716222257, Final residual = 7.43235961564e-07, No Iterations 13
GAMG:  Solving for pd, Initial residual = 0.001847506824, Final residual = 1.02106352997e-05, No Iterations 2
time step continuity errors : sum local = 0.00035089661748, global = -3.76754152546e-06, cumulative = -0.000232713896886
GAMG:  Solving for pd, Initial residual = 0.000292428798871, Final residual = 8.88941785492e-07, No Iterations 3
time step continuity errors : sum local = 3.03553356057e-05, global = -2.53109863879e-06, cumulative = -0.000235244995525
GAMG:  Solving for pd, Initial residual = 2.67914680295e-05, Final residual = 1.30147742161e-07, No Iterations 3
time step continuity errors : sum local = 4.46644850465e-06, global = -4.05771647042e-07, cumulative = -0.000235650767172
GAMGPCG:  Solving for pd, Initial residual = 3.33655472582e-06, Final residual = 9.97684705831e-09, No Iterations 2
time step continuity errors : sum local = 3.43016909319e-07, global = 8.47350543447e-09, cumulative = -0.000235642293666
BiCGStab:  Solving for epsilon, Initial residual = 0.0310037040106, Final residual = 1.58878556737e-11, No Iterations 3
BiCGStab:  Solving for k, Initial residual = 0.028959383264, Final residual = 8.69562830716e-11, No Iterations 3
ExecutionTime = 35.14 s  ClockTime = 36 s

Courant Number mean: 0.0151247853956 max: 0.500621007113 velocity magnitude: 0.917805179699
deltaT = 0.00826446280992
Time = 0.217355

GAMG:  Solving for cellDisplacementx, Initial residual = 0, Final residual = 0, No Iterations 0
GAMG:  Solving for cellDisplacementy, Initial residual = 0, Final residual = 0, No Iterations 0
GAMG:  Solving for cellDisplacementz, Initial residual = 0, Final residual = 0, No Iterations 0
volume continuity errors : volume = 1, old volume = 1, max error = 0, sum local = 0, global = 0
PIMPLE: iteration 1
MULES: Solving for alpha1
Liquid phase volume fraction = 0.540333333332  Min(alpha1) = 0  Max(alpha1) = 1.00000563607
MULES: Solving for alpha1
Liquid phase volume fraction = 0.540333333332  Min(alpha1) = 0  Max(alpha1) = 1.00000645067
MULES: Solving for alpha1
Liquid phase volume fraction = 0.540333333332  Min(alpha1) = 0  Max(alpha1) = 1.0000072407
smoothSolver:  Solving for Ux, Initial residual = 0.0342660689837, Final residual = 9.5719404296e-07, No Iterations 10
smoothSolver:  Solving for Uy, Initial residual = 0.0324798648331, Final residual = 9.67569380591e-07, No Iterations 10
smoothSolver:  Solving for Uz, Initial residual = 0.0737389266158, Final residual = 7.79257634193e-07, No Iterations 12
GAMG:  Solving for pd, Initial residual = 0.00161523808338, Final residual = 9.23349668668e-06, No Iterations 2
time step continuity errors : sum local = 0.000271611238144, global = -3.0571335922e-06, cumulative = -0.000238699427258
GAMG:  Solving for pd, Initial residual = 0.000258255368347, Final residual = 8.01636014378e-07, No Iterations 3
time step continuity errors : sum local = 2.34583741916e-05, global = -1.69613137684e-06, cumulative = -0.000240395558635
GAMG:  Solving for pd, Initial residual = 2.32757417367e-05, Final residual = 1.17130181652e-07, No Iterations 3
time step continuity errors : sum local = 3.44040076299e-06, global = -2.60887276308e-07, cumulative = -0.000240656445912
GAMGPCG:  Solving for pd, Initial residual = 2.80406122714e-06, Final residual = 8.16834986708e-09, No Iterations 2
time step continuity errors : sum local = 2.40347331092e-07, global = 7.70585060245e-09, cumulative = -0.000240648740061
BiCGStab:  Solving for epsilon, Initial residual = 0.0288853439262, Final residual = 6.40017343319e-12, No Iterations 3
BiCGStab:  Solving for k, Initial residual = 0.0254801468537, Final residual = 3.57105293521e-11, No Iterations 3
ExecutionTime = 36.48 s  ClockTime = 37 s

Courant Number mean: 0.0140436926838 max: 0.465475871471 velocity magnitude: 0.938709674123
deltaT = 0.00826446280992
Time = 0.22562

GAMG:  Solving for cellDisplacementx, Initial residual = 0, Final residual = 0, No Iterations 0
GAMG:  Solving for cellDisplacementy, Initial residual = 0, Final residual = 0, No Iterations 0
GAMG:  Solving for cellDisplacementz, Initial residual = 0, Final residual = 0, No Iterations 0
volume continuity errors : volume = 1, old volume = 1, max error = 0, sum local = 0, global = 0
PIMPLE: iteration 1
MULES: Solving for alpha1
Liquid phase volume fraction = 0.540333333332  Min(alpha1) = 0  Max(alpha1) = 1.00000778055
MULES: Solving for alpha1
Liquid phase volume fraction = 0.540333333332  Min(alpha1) = 0  Max(alpha1) = 1.00000829564
MULES: Solving for alpha1
Liquid phase volume fraction = 0.540333333332  Min(alpha1) = 0  Max(alpha1) = 1.00000891218
smoothSolver:  Solving for Ux, Initial residual = 0.0322018176928, Final residual = 8.27212996231e-07, No Iterations 10
smoothSolver:  Solving for Uy, Initial residual = 0.0303413278255, Final residual = 7.96924997026e-07, No Iterations 10
smoothSolver:  Solving for Uz, Initial residual = 0.072075895611, Final residual = 7.34716702113e-07, No Iterations 12
GAMG:  Solving for pd, Initial residual = 0.00163747731949, Final residual = 9.18588860889e-06, No Iterations 2
time step continuity errors : sum local = 0.000269967687773, global = -2.10873356373e-06, cumulative = -0.000242757473625
GAMG:  Solving for pd, Initial residual = 0.000263336009492, Final residual = 8.5989952602e-07, No Iterations 3
time step continuity errors : sum local = 2.51500312967e-05, global = -9.74900754342e-07, cumulative = -0.000243732374379
GAMG:  Solving for pd, Initial residual = 2.32113571525e-05, Final residual = 1.23554513956e-07, No Iterations 3
time step continuity errors : sum local = 3.62540065553e-06, global = -1.25989751503e-07, cumulative = -0.000243858364131
GAMGPCG:  Solving for pd, Initial residual = 2.79598171371e-06, Final residual = 8.51667231263e-09, No Iterations 2
time step continuity errors : sum local = 2.50352487977e-07, global = 9.4636221477e-09, cumulative = -0.000243848900508
BiCGStab:  Solving for epsilon, Initial residual = 0.0294133905607, Final residual = 6.20999093929e-12, No Iterations 3
BiCGStab:  Solving for k, Initial residual = 0.024707468272, Final residual = 3.44030565396e-11, No Iterations 3
ExecutionTime = 37.81 s  ClockTime = 38 s

Courant Number mean: 0.0143086690029 max: 0.463391267114 velocity magnitude: 0.934505722004
deltaT = 0.00826446280992
Time = 0.233884

GAMG:  Solving for cellDisplacementx, Initial residual = 0, Final residual = 0, No Iterations 0
GAMG:  Solving for cellDisplacementy, Initial residual = 0, Final residual = 0, No Iterations 0
GAMG:  Solving for cellDisplacementz, Initial residual = 0, Final residual = 0, No Iterations 0
volume continuity errors : volume = 1, old volume = 1, max error = 0, sum local = 0, global = 0
PIMPLE: iteration 1
MULES: Solving for alpha1
Liquid phase volume fraction = 0.540333333332  Min(alpha1) = 0  Max(alpha1) = 1.00000959885
MULES: Solving for alpha1
Liquid phase volume fraction = 0.540333333332  Min(alpha1) = 0  Max(alpha1) = 1.00001026954
MULES: Solving for alpha1
Liquid phase volume fraction = 0.540333333332  Min(alpha1) = 0  Max(alpha1) = 1.00001092361
smoothSolver:  Solving for Ux, Initial residual = 0.0302431321888, Final residual = 7.14637436952e-07, No Iterations 10
smoothSolver:  Solving for Uy, Initial residual = 0.0285027026064, Final residual = 6.46295255603e-07, No Iterations 10
smoothSolver:  Solving for Uz, Initial residual = 0.0704437010684, Final residual = 6.94361349604e-07, No Iterations 12
GAMG:  Solving for pd, Initial residual = 0.00162773612685, Final residual = 8.93353154638e-06, No Iterations 2
time step continuity errors : sum local = 0.000262501217956, global = -1.03516356279e-06, cumulative = -0.000244884064071
GAMG:  Solving for pd, Initial residual = 0.000263104814921, Final residual = 8.90032489109e-07, No Iterations 3
time step continuity errors : sum local = 2.60313609561e-05, global = -2.4575966212e-07, cumulative = -0.000245129823733
GAMG:  Solving for pd, Initial residual = 2.3065519915e-05, Final residual = 1.26724543815e-07, No Iterations 3
time step continuity errors : sum local = 3.71804306875e-06, global = 8.23431954152e-08, cumulative = -0.000245047480538
GAMGPCG:  Solving for pd, Initial residual = 2.79111361834e-06, Final residual = 9.97774877934e-09, No Iterations 2
time step continuity errors : sum local = 2.93218332802e-07, global = 1.08033009068e-08, cumulative = -0.000245036677237
BiCGStab:  Solving for epsilon, Initial residual = 0.0299300906548, Final residual = 6.08007622088e-12, No Iterations 3
BiCGStab:  Solving for k, Initial residual = 0.0239670853452, Final residual = 3.16927338153e-11, No Iterations 3
ExecutionTime = 39.14 s  ClockTime = 40 s

Courant Number mean: 0.0145419315657 max: 0.47224047322 velocity magnitude: 0.952351621012
deltaT = 0.00826446280992
Time = 0.242149

GAMG:  Solving for cellDisplacementx, Initial residual = 0, Final residual = 0, No Iterations 0
GAMG:  Solving for cellDisplacementy, Initial residual = 0, Final residual = 0, No Iterations 0
GAMG:  Solving for cellDisplacementz, Initial residual = 0, Final residual = 0, No Iterations 0
volume continuity errors : volume = 1, old volume = 1, max error = 0, sum local = 0, global = 0
PIMPLE: iteration 1
MULES: Solving for alpha1
Liquid phase volume fraction = 0.540333333332  Min(alpha1) = 0  Max(alpha1) = 1.00001153483
MULES: Solving for alpha1
Liquid phase volume fraction = 0.540333333332  Min(alpha1) = 0  Max(alpha1) = 1.00001215321
MULES: Solving for alpha1
Liquid phase volume fraction = 0.540333333332  Min(alpha1) = 0  Max(alpha1) = 1.00001278847
smoothSolver:  Solving for Ux, Initial residual = 0.028386766489, Final residual = 6.15614366469e-07, No Iterations 10
smoothSolver:  Solving for Uy, Initial residual = 0.0268486647408, Final residual = 5.18601891144e-07, No Iterations 10
smoothSolver:  Solving for Uz, Initial residual = 0.0690461669082, Final residual = 6.53505650569e-07, No Iterations 12
GAMG:  Solving for pd, Initial residual = 0.00152405593094, Final residual = 8.28520181648e-06, No Iterations 2
time step continuity errors : sum local = 0.000243339118497, global = -6.38466508156e-07, cumulative = -0.000245675143745
GAMG:  Solving for pd, Initial residual = 0.000256924369558, Final residual = 8.4632349664e-07, No Iterations 3
time step continuity errors : sum local = 2.47380446955e-05, global = -7.56147372195e-08, cumulative = -0.000245750758482
GAMG:  Solving for pd, Initial residual = 2.26645402261e-05, Final residual = 1.25937584795e-07, No Iterations 3
time step continuity errors : sum local = 3.69481232324e-06, global = 2.03084684988e-07, cumulative = -0.000245547673797
GAMGPCG:  Solving for pd, Initial residual = 2.78238772024e-06, Final residual = 8.92350570088e-10, No Iterations 3
time step continuity errors : sum local = 2.62133837153e-08, global = -1.18291788502e-10, cumulative = -0.000245547792089
BiCGStab:  Solving for epsilon, Initial residual = 0.0304253716884, Final residual = 5.90219922905e-12, No Iterations 3
BiCGStab:  Solving for k, Initial residual = 0.0232818539937, Final residual = 2.89607076602e-11, No Iterations 3
ExecutionTime = 40.56 s  ClockTime = 41 s

Courant Number mean: 0.0147418824125 max: 0.481784523884 velocity magnitude: 0.971598789853
deltaT = 0.00826446280992
Time = 0.250413

GAMG:  Solving for cellDisplacementx, Initial residual = 0, Final residual = 0, No Iterations 0
GAMG:  Solving for cellDisplacementy, Initial residual = 0, Final residual = 0, No Iterations 0
GAMG:  Solving for cellDisplacementz, Initial residual = 0, Final residual = 0, No Iterations 0
volume continuity errors : volume = 1, old volume = 1, max error = 0, sum local = 0, global = 0
PIMPLE: iteration 1
MULES: Solving for alpha1
Liquid phase volume fraction = 0.540333333332  Min(alpha1) = 0  Max(alpha1) = 1.00001260539
MULES: Solving for alpha1
Liquid phase volume fraction = 0.540333333332  Min(alpha1) = 0  Max(alpha1) = 1.00001240711
MULES: Solving for alpha1
Liquid phase volume fraction = 0.540333333332  Min(alpha1) = 0  Max(alpha1) = 1.00001219454
smoothSolver:  Solving for Ux, Initial residual = 0.0265914438695, Final residual = 5.28646894394e-07, No Iterations 10
smoothSolver:  Solving for Uy, Initial residual = 0.0252831446839, Final residual = 4.24754210196e-07, No Iterations 10
smoothSolver:  Solving for Uz, Initial residual = 0.0675797237594, Final residual = 6.10973949913e-07, No Iterations 12
GAMG:  Solving for pd, Initial residual = 0.00152924219575, Final residual = 8.10866678617e-06, No Iterations 2
time step continuity errors : sum local = 0.000238119190818, global = -5.38836801503e-07, cumulative = -0.000246086628891
GAMG:  Solving for pd, Initial residual = 0.000259444164507, Final residual = 7.81678591589e-07, No Iterations 3
time step continuity errors : sum local = 2.28257108856e-05, global = -2.18901456345e-07, cumulative = -0.000246305530347
GAMG:  Solving for pd, Initial residual = 2.24228131189e-05, Final residual = 1.30176214254e-07, No Iterations 3
time step continuity errors : sum local = 3.82059306375e-06, global = 2.15194996441e-07, cumulative = -0.000246090335351
GAMGPCG:  Solving for pd, Initial residual = 2.78682739039e-06, Final residual = 9.6169494239e-10, No Iterations 3
time step continuity errors : sum local = 2.82475936805e-08, global = -6.40366729677e-11, cumulative = -0.000246090399387
BiCGStab:  Solving for epsilon, Initial residual = 0.0309083463559, Final residual = 5.75517785243e-12, No Iterations 3
BiCGStab:  Solving for k, Initial residual = 0.0226587135819, Final residual = 2.65900511662e-11, No Iterations 3
ExecutionTime = 42.05 s  ClockTime = 43 s

Courant Number mean: 0.0149086425463 max: 0.477983867174 velocity magnitude: 0.963934132154
deltaT = 0.00826446280992
Time = 0.258678

GAMG:  Solving for cellDisplacementx, Initial residual = 0, Final residual = 0, No Iterations 0
GAMG:  Solving for cellDisplacementy, Initial residual = 0, Final residual = 0, No Iterations 0
GAMG:  Solving for cellDisplacementz, Initial residual = 0, Final residual = 0, No Iterations 0
volume continuity errors : volume = 1, old volume = 1, max error = 0, sum local = 0, global = 0
PIMPLE: iteration 1
MULES: Solving for alpha1
Liquid phase volume fraction = 0.540333333332  Min(alpha1) = 0  Max(alpha1) = 1.00001195639
MULES: Solving for alpha1
Liquid phase volume fraction = 0.540333333332  Min(alpha1) = 0  Max(alpha1) = 1.00001170643
MULES: Solving for alpha1
Liquid phase volume fraction = 0.540333333332  Min(alpha1) = 0  Max(alpha1) = 1.0000114458
smoothSolver:  Solving for Ux, Initial residual = 0.0249623716018, Final residual = 4.59180499587e-07, No Iterations 10
smoothSolver:  Solving for Uy, Initial residual = 0.0238947613424, Final residual = 3.84198785141e-07, No Iterations 10
smoothSolver:  Solving for Uz, Initial residual = 0.0661339096549, Final residual = 5.69012845167e-07, No Iterations 12
GAMG:  Solving for pd, Initial residual = 0.0015737862475, Final residual = 8.32099501067e-06, No Iterations 2
time step continuity errors : sum local = 0.000244215185526, global = -1.26834043066e-06, cumulative = -0.000247358739818
GAMG:  Solving for pd, Initial residual = 0.00026715220645, Final residual = 7.66176476271e-07, No Iterations 3
time step continuity errors : sum local = 2.23250044286e-05, global = -6.993011564e-07, cumulative = -0.000248058040974
GAMG:  Solving for pd, Initial residual = 2.25307739828e-05, Final residual = 1.3579863253e-07, No Iterations 3
time step continuity errors : sum local = 3.98522660547e-06, global = 1.52385307196e-07, cumulative = -0.000247905655667
GAMGPCG:  Solving for pd, Initial residual = 2.79869186214e-06, Final residual = 1.11153939717e-09, No Iterations 3
time step continuity errors : sum local = 3.2634043977e-08, global = -3.15102891944e-11, cumulative = -0.000247905687177
BiCGStab:  Solving for epsilon, Initial residual = 0.0313909103487, Final residual = 5.59455944414e-12, No Iterations 3
BiCGStab:  Solving for k, Initial residual = 0.0221072246972, Final residual = 2.50719515874e-11, No Iterations 3
ExecutionTime = 43.53 s  ClockTime = 44 s

Courant Number mean: 0.0150416475688 max: 0.479395781972 velocity magnitude: 0.966781493633
deltaT = 0.00826446280992
Time = 0.266942

GAMG:  Solving for cellDisplacementx, Initial residual = 0, Final residual = 0, No Iterations 0
GAMG:  Solving for cellDisplacementy, Initial residual = 0, Final residual = 0, No Iterations 0
GAMG:  Solving for cellDisplacementz, Initial residual = 0, Final residual = 0, No Iterations 0
volume continuity errors : volume = 1, old volume = 1, max error = 0, sum local = 0, global = 0
PIMPLE: iteration 1
MULES: Solving for alpha1
Liquid phase volume fraction = 0.540333333332  Min(alpha1) = 0  Max(alpha1) = 1.00001116817
MULES: Solving for alpha1
Liquid phase volume fraction = 0.540333333332  Min(alpha1) = 0  Max(alpha1) = 1.00001088253
MULES: Solving for alpha1
Liquid phase volume fraction = 0.540333333332  Min(alpha1) = 0  Max(alpha1) = 1.0000106797
smoothSolver:  Solving for Ux, Initial residual = 0.0236414487654, Final residual = 4.10372767363e-07, No Iterations 10
smoothSolver:  Solving for Uy, Initial residual = 0.0227772145975, Final residual = 3.73844361686e-07, No Iterations 10
smoothSolver:  Solving for Uz, Initial residual = 0.0653797070919, Final residual = 5.32443670459e-07, No Iterations 12
GAMG:  Solving for pd, Initial residual = 0.00145293647284, Final residual = 8.50108215184e-06, No Iterations 2
time step continuity errors : sum local = 0.000249192973027, global = -4.6353108383e-06, cumulative = -0.000252540998016
GAMG:  Solving for pd, Initial residual = 0.000262488930696, Final residual = 8.0372295349e-07, No Iterations 3
time step continuity errors : sum local = 2.33413755813e-05, global = -1.86827890026e-06, cumulative = -0.000254409276916
GAMG:  Solving for pd, Initial residual = 2.2026623682e-05, Final residual = 1.3520047473e-07, No Iterations 3
time step continuity errors : sum local = 3.96415914913e-06, global = 5.78637861676e-08, cumulative = -0.00025435141313
GAMGPCG:  Solving for pd, Initial residual = 2.75833866602e-06, Final residual = 1.20393165454e-09, No Iterations 3
time step continuity errors : sum local = 3.53128207579e-08, global = -4.75090356826e-10, cumulative = -0.00025435188822
BiCGStab:  Solving for epsilon, Initial residual = 0.0318621214209, Final residual = 5.37787164413e-12, No Iterations 3
BiCGStab:  Solving for k, Initial residual = 0.0215789895398, Final residual = 2.29786320671e-11, No Iterations 3
ExecutionTime = 45 s  ClockTime = 45 s

Courant Number mean: 0.015140490291 max: 0.487320271301 velocity magnitude: 0.982762547113
deltaT = 0.00826446280992
Time = 0.275207

GAMG:  Solving for cellDisplacementx, Initial residual = 0, Final residual = 0, No Iterations 0
GAMG:  Solving for cellDisplacementy, Initial residual = 0, Final residual = 0, No Iterations 0
GAMG:  Solving for cellDisplacementz, Initial residual = 0, Final residual = 0, No Iterations 0
volume continuity errors : volume = 1, old volume = 1, max error = 0, sum local = 0, global = 0
PIMPLE: iteration 1
MULES: Solving for alpha1
Liquid phase volume fraction = 0.540333333332  Min(alpha1) = 0  Max(alpha1) = 1.00001060322
MULES: Solving for alpha1
Liquid phase volume fraction = 0.540333333332  Min(alpha1) = 0  Max(alpha1) = 1.00001051512
MULES: Solving for alpha1
Liquid phase volume fraction = 0.540333333332  Min(alpha1) = 0  Max(alpha1) = 1.00001041582
smoothSolver:  Solving for Ux, Initial residual = 0.0222938488323, Final residual = 3.78091059812e-07, No Iterations 10
smoothSolver:  Solving for Uy, Initial residual = 0.0219060048817, Final residual = 3.83955454707e-07, No Iterations 10
smoothSolver:  Solving for Uz, Initial residual = 0.0646422156262, Final residual = 4.99992441051e-07, No Iterations 12
GAMG:  Solving for pd, Initial residual = 0.00138448717057, Final residual = 8.54365982355e-06, No Iterations 2
time step continuity errors : sum local = 0.000250263123203, global = -7.59243368009e-06, cumulative = -0.0002619443219
GAMG:  Solving for pd, Initial residual = 0.000258439715601, Final residual = 8.15998099812e-07, No Iterations 3
time step continuity errors : sum local = 2.36310209513e-05, global = -2.87099870516e-06, cumulative = -0.000264815320605
GAMG:  Solving for pd, Initial residual = 2.15087678064e-05, Final residual = 1.25455852681e-07, No Iterations 3
time step continuity errors : sum local = 3.67558804434e-06, global = -8.70592180297e-08, cumulative = -0.000264902379823
GAMGPCG:  Solving for pd, Initial residual = 2.74291865263e-06, Final residual = 1.08613357811e-09, No Iterations 3
time step continuity errors : sum local = 3.18386053148e-08, global = -6.56569896488e-10, cumulative = -0.000264903036393
BiCGStab:  Solving for epsilon, Initial residual = 0.0323255129194, Final residual = 5.21550179796e-12, No Iterations 3
BiCGStab:  Solving for k, Initial residual = 0.021085835382, Final residual = 2.13468612955e-11, No Iterations 3
ExecutionTime = 46.47 s  ClockTime = 47 s

Courant Number mean: 0.0152061205781 max: 0.484845535463 velocity magnitude: 0.97777182984
deltaT = 0.00826446280992
Time = 0.283471

GAMG:  Solving for cellDisplacementx, Initial residual = 0, Final residual = 0, No Iterations 0
GAMG:  Solving for cellDisplacementy, Initial residual = 0, Final residual = 0, No Iterations 0
GAMG:  Solving for cellDisplacementz, Initial residual = 0, Final residual = 0, No Iterations 0
volume continuity errors : volume = 1, old volume = 1, max error = 0, sum local = 0, global = 0
PIMPLE: iteration 1
MULES: Solving for alpha1
Liquid phase volume fraction = 0.540333333332  Min(alpha1) = 0  Max(alpha1) = 1.00001030591
MULES: Solving for alpha1
Liquid phase volume fraction = 0.540333333332  Min(alpha1) = 0  Max(alpha1) = 1.00001018627
MULES: Solving for alpha1
Liquid phase volume fraction = 0.540333333332  Min(alpha1) = 0  Max(alpha1) = 1.00001005739
smoothSolver:  Solving for Ux, Initial residual = 0.0210338258633, Final residual = 3.52842358493e-07, No Iterations 10
[...]
BiCGStab:  Solving for epsilon, Initial residual = 0.0196521580203, Final residual = 8.85297282532e-09, No Iterations 2
BiCGStab:  Solving for k, Initial residual = 0.00952713650398, Final residual = 3.50645779377e-11, No Iterations 3
ExecutionTime = 155.15 s  ClockTime = 156 s

Courant Number mean: 0.0162553861653 max: 0.346152204712 velocity magnitude: 0.576920341181
deltaT = 0.01
Time = 0.93

GAMG:  Solving for cellDisplacementx, Initial residual = 0, Final residual = 0, No Iterations 0
GAMG:  Solving for cellDisplacementy, Initial residual = 0, Final residual = 0, No Iterations 0
GAMG:  Solving for cellDisplacementz, Initial residual = 0, Final residual = 0, No Iterations 0
volume continuity errors : volume = 1, old volume = 1, max error = 0, sum local = 0, global = 0
PIMPLE: iteration 1
MULES: Solving for alpha1
Liquid phase volume fraction = 0.540333333332  Min(alpha1) = 0  Max(alpha1) = 1.00001144444
MULES: Solving for alpha1
Liquid phase volume fraction = 0.540333333332  Min(alpha1) = 0  Max(alpha1) = 1.00001140984
MULES: Solving for alpha1
Liquid phase volume fraction = 0.540333333332  Min(alpha1) = 0  Max(alpha1) = 1.00001137524
smoothSolver:  Solving for Ux, Initial residual = 0.0360364842156, Final residual = 6.46499318366e-07, No Iterations 10
smoothSolver:  Solving for Uy, Initial residual = 0.0334007856777, Final residual = 5.98848776314e-07, No Iterations 10
smoothSolver:  Solving for Uz, Initial residual = 0.0861657827102, Final residual = 3.87352801368e-07, No Iterations 12
GAMG:  Solving for pd, Initial residual = 0.00121583415115, Final residual = 7.91450818435e-06, No Iterations 2
time step continuity errors : sum local = 0.000292279379948, global = 6.2813542488e-07, cumulative = -0.000412136502812
GAMG:  Solving for pd, Initial residual = 0.000262757127266, Final residual = 7.43896940161e-07, No Iterations 3
time step continuity errors : sum local = 2.74758579326e-05, global = 1.37493008512e-06, cumulative = -0.000410761572727
GAMG:  Solving for pd, Initial residual = 2.38210659747e-05, Final residual = 1.13139193316e-07, No Iterations 3
time step continuity errors : sum local = 4.17801341779e-06, global = 8.96062080063e-07, cumulative = -0.000409865510647
GAMGPCG:  Solving for pd, Initial residual = 3.21889577195e-06, Final residual = 6.37875571846e-09, No Iterations 2
time step continuity errors : sum local = 2.35522346195e-07, global = 6.01846086072e-09, cumulative = -0.000409859492186
BiCGStab:  Solving for epsilon, Initial residual = 0.019479667344, Final residual = 8.87027097241e-09, No Iterations 2
BiCGStab:  Solving for k, Initial residual = 0.00945396326791, Final residual = 3.57696549424e-11, No Iterations 3
ExecutionTime = 156.54 s  ClockTime = 158 s

Courant Number mean: 0.0162195843939 max: 0.343741213378 velocity magnitude: 0.572902022291
deltaT = 0.01
Time = 0.94

GAMG:  Solving for cellDisplacementx, Initial residual = 0, Final residual = 0, No Iterations 0
GAMG:  Solving for cellDisplacementy, Initial residual = 0, Final residual = 0, No Iterations 0
GAMG:  Solving for cellDisplacementz, Initial residual = 0, Final residual = 0, No Iterations 0
volume continuity errors : volume = 1, old volume = 1, max error = 0, sum local = 0, global = 0
PIMPLE: iteration 1
MULES: Solving for alpha1
Liquid phase volume fraction = 0.540333333332  Min(alpha1) = 0  Max(alpha1) = 1.00001132651
MULES: Solving for alpha1
Liquid phase volume fraction = 0.540333333332  Min(alpha1) = 0  Max(alpha1) = 1.00001127779
MULES: Solving for alpha1
Liquid phase volume fraction = 0.540333333332  Min(alpha1) = 0  Max(alpha1) = 1.00001127373
smoothSolver:  Solving for Ux, Initial residual = 0.0365364123858, Final residual = 6.43147072982e-07, No Iterations 10
smoothSolver:  Solving for Uy, Initial residual = 0.0331615289849, Final residual = 5.87071987487e-07, No Iterations 10
smoothSolver:  Solving for Uz, Initial residual = 0.0867343577826, Final residual = 3.90952728333e-07, No Iterations 12
GAMG:  Solving for pd, Initial residual = 0.00120225393845, Final residual = 7.94216949261e-06, No Iterations 2
time step continuity errors : sum local = 0.000294401446733, global = 2.0974998351e-08, cumulative = -0.000409838517187
GAMG:  Solving for pd, Initial residual = 0.000261559660735, Final residual = 7.41538231531e-07, No Iterations 3
time step continuity errors : sum local = 2.74785265009e-05, global = 1.06817957953e-06, cumulative = -0.000408770337608
GAMG:  Solving for pd, Initial residual = 2.36906786583e-05, Final residual = 1.1371011672e-07, No Iterations 3
time step continuity errors : sum local = 4.21485803849e-06, global = 8.55700120536e-07, cumulative = -0.000407914637487
GAMGPCG:  Solving for pd, Initial residual = 3.20155484863e-06, Final residual = 6.58211505146e-09, No Iterations 2
time step continuity errors : sum local = 2.43953911542e-07, global = 7.5666021156e-09, cumulative = -0.000407907070885
BiCGStab:  Solving for epsilon, Initial residual = 0.0192786773284, Final residual = 8.6348380397e-09, No Iterations 2
BiCGStab:  Solving for k, Initial residual = 0.0093650184584, Final residual = 3.4395660138e-11, No Iterations 3
ExecutionTime = 157.9 s  ClockTime = 159 s

Courant Number mean: 0.0161496451157 max: 0.336813906729 velocity magnitude: 0.561356511209
deltaT = 0.01
Time = 0.95

GAMG:  Solving for cellDisplacementx, Initial residual = 0, Final residual = 0, No Iterations 0
GAMG:  Solving for cellDisplacementy, Initial residual = 0, Final residual = 0, No Iterations 0
GAMG:  Solving for cellDisplacementz, Initial residual = 0, Final residual = 0, No Iterations 0
volume continuity errors : volume = 1, old volume = 1, max error = 0, sum local = 0, global = 0
PIMPLE: iteration 1
MULES: Solving for alpha1
Liquid phase volume fraction = 0.540333333332  Min(alpha1) = 0  Max(alpha1) = 1.00001131276
MULES: Solving for alpha1
Liquid phase volume fraction = 0.540333333332  Min(alpha1) = 0  Max(alpha1) = 1.00001135174
MULES: Solving for alpha1
Liquid phase volume fraction = 0.540333333332  Min(alpha1) = 0  Max(alpha1) = 1.00001139066
smoothSolver:  Solving for Ux, Initial residual = 0.0371184612312, Final residual = 6.42035109014e-07, No Iterations 10
smoothSolver:  Solving for Uy, Initial residual = 0.0330096676995, Final residual = 5.77755143095e-07, No Iterations 10
smoothSolver:  Solving for Uz, Initial residual = 0.087368976224, Final residual = 3.95173015052e-07, No Iterations 12
GAMG:  Solving for pd, Initial residual = 0.00119427273545, Final residual = 7.96729816984e-06, No Iterations 2
time step continuity errors : sum local = 0.000296001557164, global = -4.91815541839e-07, cumulative = -0.000408398886427
GAMG:  Solving for pd, Initial residual = 0.000260218392094, Final residual = 7.36845398399e-07, No Iterations 3
time step continuity errors : sum local = 2.73534547981e-05, global = 7.90034374495e-07, cumulative = -0.000407608852053
GAMG:  Solving for pd, Initial residual = 2.35292520344e-05, Final residual = 1.13452267121e-07, No Iterations 3
time step continuity errors : sum local = 4.21475287212e-06, global = 8.03785068763e-07, cumulative = -0.000406805066984
GAMGPCG:  Solving for pd, Initial residual = 3.18230511324e-06, Final residual = 6.84726377966e-09, No Iterations 2
time step continuity errors : sum local = 2.54363374647e-07, global = 8.5819942547e-09, cumulative = -0.00040679648499
BiCGStab:  Solving for epsilon, Initial residual = 0.0191051199563, Final residual = 8.42192143404e-09, No Iterations 2
BiCGStab:  Solving for k, Initial residual = 0.00929404712488, Final residual = 3.31089824365e-11, No Iterations 3
ExecutionTime = 159.28 s  ClockTime = 161 s

Courant Number mean: 0.0160442220958 max: 0.324934687686 velocity magnitude: 0.541557812804
deltaT = 0.01
Time = 0.96

GAMG:  Solving for cellDisplacementx, Initial residual = 0, Final residual = 0, No Iterations 0
GAMG:  Solving for cellDisplacementy, Initial residual = 0, Final residual = 0, No Iterations 0
GAMG:  Solving for cellDisplacementz, Initial residual = 0, Final residual = 0, No Iterations 0
volume continuity errors : volume = 1, old volume = 1, max error = 0, sum local = 0, global = 0
PIMPLE: iteration 1
MULES: Solving for alpha1
Liquid phase volume fraction = 0.540333333332  Min(alpha1) = 0  Max(alpha1) = 1.00001141853
MULES: Solving for alpha1
Liquid phase volume fraction = 0.540333333332  Min(alpha1) = 0  Max(alpha1) = 1.00001144635
MULES: Solving for alpha1
Liquid phase volume fraction = 0.540333333332  Min(alpha1) = 0  Max(alpha1) = 1.00001147411
smoothSolver:  Solving for Ux, Initial residual = 0.0377622985557, Final residual = 6.43264339603e-07, No Iterations 10
smoothSolver:  Solving for Uy, Initial residual = 0.0329993224348, Final residual = 5.70879509808e-07, No Iterations 10
smoothSolver:  Solving for Uz, Initial residual = 0.0880534424602, Final residual = 4.00024630107e-07, No Iterations 12
GAMG:  Solving for pd, Initial residual = 0.00119823839109, Final residual = 7.98295549911e-06, No Iterations 2
time step continuity errors : sum local = 0.000297503659685, global = -8.53522632848e-07, cumulative = -0.000407650007622
GAMG:  Solving for pd, Initial residual = 0.000258832054773, Final residual = 7.28882484821e-07, No Iterations 3
time step continuity errors : sum local = 2.71291800401e-05, global = 5.86205541593e-07, cumulative = -0.000407063802081
GAMG:  Solving for pd, Initial residual = 2.33089435425e-05, Final residual = 1.12249743116e-07, No Iterations 3
time step continuity errors : sum local = 4.18287086072e-06, global = 7.53816091328e-07, cumulative = -0.000406309985989
GAMGPCG:  Solving for pd, Initial residual = 3.15557816251e-06, Final residual = 7.13439794906e-09, No Iterations 2
time step continuity errors : sum local = 2.65853638768e-07, global = 9.35012987639e-09, cumulative = -0.00040630063586
BiCGStab:  Solving for epsilon, Initial residual = 0.0189762379081, Final residual = 8.55563005874e-09, No Iterations 2
BiCGStab:  Solving for k, Initial residual = 0.00924671719104, Final residual = 3.39598325124e-11, No Iterations 3
ExecutionTime = 160.64 s  ClockTime = 162 s

Courant Number mean: 0.015903949419 max: 0.310608993994 velocity magnitude: 0.517681656667
deltaT = 0.01
Time = 0.97

GAMG:  Solving for cellDisplacementx, Initial residual = 0, Final residual = 0, No Iterations 0
GAMG:  Solving for cellDisplacementy, Initial residual = 0, Final residual = 0, No Iterations 0
GAMG:  Solving for cellDisplacementz, Initial residual = 0, Final residual = 0, No Iterations 0
volume continuity errors : volume = 1, old volume = 1, max error = 0, sum local = 0, global = 0
PIMPLE: iteration 1
MULES: Solving for alpha1
Liquid phase volume fraction = 0.540333333332  Min(alpha1) = 0  Max(alpha1) = 1.00001149117
MULES: Solving for alpha1
Liquid phase volume fraction = 0.540333333332  Min(alpha1) = 0  Max(alpha1) = 1.00001150818
MULES: Solving for alpha1
Liquid phase volume fraction = 0.540333333332  Min(alpha1) = 0  Max(alpha1) = 1.00001152514
smoothSolver:  Solving for Ux, Initial residual = 0.0384649815305, Final residual = 6.46775729618e-07, No Iterations 10
smoothSolver:  Solving for Uy, Initial residual = 0.0331191392704, Final residual = 5.66424113194e-07, No Iterations 10
smoothSolver:  Solving for Uz, Initial residual = 0.0887851225658, Final residual = 4.05425563581e-07, No Iterations 12
GAMG:  Solving for pd, Initial residual = 0.00120938427611, Final residual = 7.99491159716e-06, No Iterations 2
time step continuity errors : sum local = 0.000299232582052, global = -1.07253473263e-06, cumulative = -0.000407373170592
GAMG:  Solving for pd, Initial residual = 0.000256740484553, Final residual = 7.20498852731e-07, No Iterations 3
time step continuity errors : sum local = 2.69211708526e-05, global = 4.63470674861e-07, cumulative = -0.000406909699917
GAMG:  Solving for pd, Initial residual = 2.30285290093e-05, Final residual = 1.10588262927e-07, No Iterations 3
time step continuity errors : sum local = 4.13853976549e-06, global = 7.16842788213e-07, cumulative = -0.000406192857129
GAMGPCG:  Solving for pd, Initial residual = 3.11972148511e-06, Final residual = 7.42720644449e-09, No Iterations 2
time step continuity errors : sum local = 2.77953999578e-07, global = 1.00665099373e-08, cumulative = -0.000406182790619
BiCGStab:  Solving for epsilon, Initial residual = 0.0188459566337, Final residual = 8.38879139905e-09, No Iterations 2
BiCGStab:  Solving for k, Initial residual = 0.0091862854837, Final residual = 3.3482799966e-11, No Iterations 3
ExecutionTime = 162.07 s  ClockTime = 163 s

Courant Number mean: 0.0157289399856 max: 0.302538108368 velocity magnitude: 0.504230180624
deltaT = 0.01
Time = 0.98

GAMG:  Solving for cellDisplacementx, Initial residual = 0, Final residual = 0, No Iterations 0
GAMG:  Solving for cellDisplacementy, Initial residual = 0, Final residual = 0, No Iterations 0
GAMG:  Solving for cellDisplacementz, Initial residual = 0, Final residual = 0, No Iterations 0
volume continuity errors : volume = 1, old volume = 1, max error = 0, sum local = 0, global = 0
PIMPLE: iteration 1
MULES: Solving for alpha1
Liquid phase volume fraction = 0.540333333332  Min(alpha1) = 0  Max(alpha1) = 1.00001153157
MULES: Solving for alpha1
Liquid phase volume fraction = 0.540333333332  Min(alpha1) = 0  Max(alpha1) = 1.00001153795
MULES: Solving for alpha1
Liquid phase volume fraction = 0.540333333332  Min(alpha1) = 0  Max(alpha1) = 1.00001154429
smoothSolver:  Solving for Ux, Initial residual = 0.0392102824278, Final residual = 6.52444882074e-07, No Iterations 10
smoothSolver:  Solving for Uy, Initial residual = 0.0333757859282, Final residual = 5.64282463776e-07, No Iterations 10
smoothSolver:  Solving for Uz, Initial residual = 0.0895265161062, Final residual = 4.11406907633e-07, No Iterations 12
GAMG:  Solving for pd, Initial residual = 0.00121643465869, Final residual = 7.96708835543e-06, No Iterations 2
time step continuity errors : sum local = 0.000299046974648, global = -1.18671283235e-06, cumulative = -0.000407369503452
GAMG:  Solving for pd, Initial residual = 0.000254099171585, Final residual = 7.13725938485e-07, No Iterations 3
time step continuity errors : sum local = 2.67349431205e-05, global = 3.71620630328e-07, cumulative = -0.000406997882821
GAMG:  Solving for pd, Initial residual = 2.27707047402e-05, Final residual = 1.08915479057e-07, No Iterations 3
time step continuity errors : sum local = 4.08752077949e-06, global = 6.81458807741e-07, cumulative = -0.000406316424014
GAMGPCG:  Solving for pd, Initial residual = 3.08258159273e-06, Final residual = 7.69060608215e-09, No Iterations 2
time step continuity errors : sum local = 2.88635178585e-07, global = 1.06955884408e-08, cumulative = -0.000406305728425
BiCGStab:  Solving for epsilon, Initial residual = 0.0187403603419, Final residual = 8.37045154448e-09, No Iterations 2
BiCGStab:  Solving for k, Initial residual = 0.00914685235485, Final residual = 3.30842781724e-11, No Iterations 3
ExecutionTime = 163.45 s  ClockTime = 165 s

Courant Number mean: 0.0155211012881 max: 0.291345269015 velocity magnitude: 0.485575448369
deltaT = 0.01
Time = 0.99

GAMG:  Solving for cellDisplacementx, Initial residual = 0, Final residual = 0, No Iterations 0
GAMG:  Solving for cellDisplacementy, Initial residual = 0, Final residual = 0, No Iterations 0
GAMG:  Solving for cellDisplacementz, Initial residual = 0, Final residual = 0, No Iterations 0
volume continuity errors : volume = 1, old volume = 1, max error = 0, sum local = 0, global = 0
PIMPLE: iteration 1
MULES: Solving for alpha1
Liquid phase volume fraction = 0.540333333332  Min(alpha1) = 0  Max(alpha1) = 1.00001155303
MULES: Solving for alpha1
Liquid phase volume fraction = 0.540333333332  Min(alpha1) = 0  Max(alpha1) = 1.00001156429
MULES: Solving for alpha1
Liquid phase volume fraction = 0.540333333332  Min(alpha1) = 0  Max(alpha1) = 1.00001157551
smoothSolver:  Solving for Ux, Initial residual = 0.0399812406371, Final residual = 6.6015257211e-07, No Iterations 10
smoothSolver:  Solving for Uy, Initial residual = 0.033744446487, Final residual = 5.64446328315e-07, No Iterations 10
smoothSolver:  Solving for Uz, Initial residual = 0.0902797176192, Final residual = 4.17935522068e-07, No Iterations 12
GAMG:  Solving for pd, Initial residual = 0.00120713270347, Final residual = 7.8696739746e-06, No Iterations 2
time step continuity errors : sum local = 0.000296541280096, global = -1.23557508088e-06, cumulative = -0.000407541303506
GAMG:  Solving for pd, Initial residual = 0.000250147350771, Final residual = 7.07002030514e-07, No Iterations 3
time step continuity errors : sum local = 2.65788889935e-05, global = 2.92579773461e-07, cumulative = -0.000407248723732
GAMG:  Solving for pd, Initial residual = 2.24366353409e-05, Final residual = 1.07232573129e-07, No Iterations 3
time step continuity errors : sum local = 4.04000659976e-06, global = 6.50496453165e-07, cumulative = -0.000406598227279
GAMGPCG:  Solving for pd, Initial residual = 3.03421355271e-06, Final residual = 7.87483851208e-09, No Iterations 2
time step continuity errors : sum local = 2.96702165124e-07, global = 1.11564577654e-08, cumulative = -0.000406587070822
BiCGStab:  Solving for epsilon, Initial residual = 0.0186430105718, Final residual = 8.23277735977e-09, No Iterations 2
BiCGStab:  Solving for k, Initial residual = 0.0091073335436, Final residual = 3.19721193359e-11, No Iterations 3
ExecutionTime = 164.85 s  ClockTime = 166 s

Courant Number mean: 0.0152819044706 max: 0.277935034623 velocity magnitude: 0.463225057714
deltaT = 0.01
Time = 1

GAMG:  Solving for cellDisplacementx, Initial residual = 0, Final residual = 0, No Iterations 0
GAMG:  Solving for cellDisplacementy, Initial residual = 0, Final residual = 0, No Iterations 0
GAMG:  Solving for cellDisplacementz, Initial residual = 0, Final residual = 0, No Iterations 0
volume continuity errors : volume = 1, old volume = 1, max error = 0, sum local = 0, global = 0
PIMPLE: iteration 1
MULES: Solving for alpha1
Liquid phase volume fraction = 0.540333333332  Min(alpha1) = 0  Max(alpha1) = 1.00001157947
MULES: Solving for alpha1
Liquid phase volume fraction = 0.540333333332  Min(alpha1) = 0  Max(alpha1) = 1.00001158339
MULES: Solving for alpha1
Liquid phase volume fraction = 0.540333333332  Min(alpha1) = 0  Max(alpha1) = 1.00001158727
smoothSolver:  Solving for Ux, Initial residual = 0.0408060879597, Final residual = 6.69937015948e-07, No Iterations 10
smoothSolver:  Solving for Uy, Initial residual = 0.0342449945755, Final residual = 5.6683098073e-07, No Iterations 10
smoothSolver:  Solving for Uz, Initial residual = 0.091124413977, Final residual = 4.24973245701e-07, No Iterations 12
GAMG:  Solving for pd, Initial residual = 0.0011895427484, Final residual = 7.73259926208e-06, No Iterations 2
time step continuity errors : sum local = 0.00029242870551, global = -1.20654033969e-06, cumulative = -0.000407793611161
GAMG:  Solving for pd, Initial residual = 0.000245803766446, Final residual = 6.99949814809e-07, No Iterations 3
time step continuity errors : sum local = 2.64039710618e-05, global = 2.3470998161e-07, cumulative = -0.00040755890118
GAMG:  Solving for pd, Initial residual = 2.20572394552e-05, Final residual = 1.05686824768e-07, No Iterations 3
time step continuity errors : sum local = 3.99620366738e-06, global = 6.24205301111e-07, cumulative = -0.000406934695879
GAMGPCG:  Solving for pd, Initial residual = 2.9800864791e-06, Final residual = 7.97462962705e-09, No Iterations 2
time step continuity errors : sum local = 3.01552874609e-07, global = 1.14021284338e-08, cumulative = -0.00040692329375
BiCGStab:  Solving for epsilon, Initial residual = 0.0185845466151, Final residual = 8.31312915827e-09, No Iterations 2
BiCGStab:  Solving for k, Initial residual = 0.00908630149756, Final residual = 3.24973636346e-11, No Iterations 3
ExecutionTime = 167.1 s  ClockTime = 168 s

Fabis kommentar test 9.5.19
End

