/*---------------------------------------------------------------------------*\
| =========                 |                                                 |
| \\      /  F ield         | foam-extend: Open Source CFD                    |
|  \\    /   O peration     | Version:     4.1                                |
|   \\  /    A nd           | Web:         http://www.foam-extend.org         |
|    \\/     M anipulation  | For copyright notice see file Copyright         |
\*---------------------------------------------------------------------------*/
Build  : 4.1-752fce1a0260
Exec   : blockMesh
Date   : May 09 2019
Time   : 09:28:05
Host   : "fabian-Latitude-E6320"
PID    : 7226
CtrlDict : "/home/fabianspieler/foam/fabianspieler-4.1/run/bachelorarbeit/test2/tutorials/floatingObject/system/controlDict"
Case   : /home/fabianspieler/foam/fabianspieler-4.1/run/bachelorarbeit/test2/tutorials/floatingObject
nProcs : 1
sigFpe : Enabling floating point exception trapping (FOAM_SIGFPE).
allowSystemOperations : Disallowing user-supplied system call operations

// * * * * * * * * * * * * * * * * * * * * * * * * * * * * * * * * * * * * * //
Create time


Creating block mesh from
    "/home/fabianspieler/foam/fabianspieler-4.1/run/bachelorarbeit/test2/tutorials/floatingObject/constant/polyMesh/blockMeshDict"

Creating curved edges
Creating topology blocks
Creating topology patches

Creating block mesh topology

Check topology

	Basic statistics
		Number of internal faces : 0
		Number of boundary faces : 6
		Number of defined boundary faces : 6
		Number of undefined boundary faces : 0
	Checking patch -> block consistency

Creating block offsets
Creating merge list .

Creating polyMesh from blockMesh
Creating patches
Creating cells
Creating points with scale 1
    Block 0 cell size :
        i : 0.025 .. 0.025
        j : 0.025 .. 0.025
        k : 0.0166666666667 .. 0.0166666666667


Writing polyMesh
----------------
Mesh Information
----------------
  boundingBox: (0 0 0) (1 1 1)
  nPoints: 102541
  nCells: 96000
  nFaces: 294400
  nInternalFaces: 281600
----------------
Patches
----------------
  patch 0 (start: 281600 size: 11200) name: stationaryWalls
  patch 1 (start: 292800 size: 1600) name: atmosphere
  patch 2 (start: 294400 size: 0) name: floatingObject

End

