/*---------------------------------------------------------------------------*\
| =========                 |                                                 |
| \\      /  F ield         | foam-extend: Open Source CFD                    |
|  \\    /   O peration     | Version:     4.1                                |
|   \\  /    A nd           | Web:         http://www.foam-extend.org         |
|    \\/     M anipulation  | For copyright notice see file Copyright         |
\*---------------------------------------------------------------------------*/
Build  : 4.1-752fce1a0260
Exec   : cellSet
Date   : May 09 2019
Time   : 09:28:06
Host   : "fabian-Latitude-E6320"
PID    : 7230
CtrlDict : "/home/fabianspieler/foam/fabianspieler-4.1/run/bachelorarbeit/test2/tutorials/floatingObject/system/controlDict"
Case   : /home/fabianspieler/foam/fabianspieler-4.1/run/bachelorarbeit/test2/tutorials/floatingObject
nProcs : 1
sigFpe : Enabling floating point exception trapping (FOAM_SIGFPE).
allowSystemOperations : Disallowing user-supplied system call operations

// * * * * * * * * * * * * * * * * * * * * * * * * * * * * * * * * * * * * * //
Create time

Create polyMesh for time = 0

Reading cellSetDict

Set:c0  Size:1152  Action:invert
Backing up c0 into c0_old
Writing c0 (size 94848) to "constant/polyMesh/sets/c0"


End
