/*---------------------------------------------------------------------------*\
| =========                 |                                                 |
| \\      /  F ield         | foam-extend: Open Source CFD                    |
|  \\    /   O peration     | Version:     4.1                                |
|   \\  /    A nd           | Web:         http://www.foam-extend.org         |
|    \\/     M anipulation  | For copyright notice see file Copyright         |
\*---------------------------------------------------------------------------*/
Build  : 4.1-752fce1a0260
Exec   : subsetMesh -overwrite c0 -patch floatingObject
Date   : May 09 2019
Time   : 09:28:07
Host   : "fabian-Latitude-E6320"
PID    : 7232
CtrlDict : "/home/fabianspieler/foam/fabianspieler-4.1/run/bachelorarbeit/test2/tutorials/floatingObject/system/controlDict"
Case   : /home/fabianspieler/foam/fabianspieler-4.1/run/bachelorarbeit/test2/tutorials/floatingObject
nProcs : 1
sigFpe : Enabling floating point exception trapping (FOAM_SIGFPE).
allowSystemOperations : Disallowing user-supplied system call operations

// * * * * * * * * * * * * * * * * * * * * * * * * * * * * * * * * * * * * * //
Create time

Create mesh for time = 0

Reading cell set from c0

Adding exposed internal faces to patch floatingObject

Number of cells in new mesh : 94848
Number of faces in new mesh : 291280
Number of points in new mesh: 101694
Writing subsetted mesh and fields to time 0

End
